Julia Version 1.6.0-DEV.1177
Commit 113afd9309 (2020-10-10 16:54 UTC)
Platform Info:
  OS: Linux (x86_64-pc-linux-gnu)
  CPU: AMD EPYC 7502 32-Core Processor
  WORD_SIZE: 64
  LIBM: libopenlibm
  LLVM: libLLVM-10.0.1 (ORCJIT, znver2)
Environment:
  JULIA_DEPOT_PATH = ::/usr/local/share/julia
  JULIA_NUM_THREADS = 2
  JULIA_MAX_NUM_PRECOMPILE_FILES = 9223372036854775807

  Resolving package versions...
  Installed Reexport ───────────────────── v0.2.0
  Installed FFTW_jll ───────────────────── v3.3.9+5
  Installed MKL_jll ────────────────────── v2020.2.254+0
  Installed AbstractFFTs ───────────────── v0.5.0
  Installed GenericSVD ─────────────────── v0.3.0
  Installed SpecialFunctions ───────────── v0.10.3
  Installed ArbNumerics ────────────────── v1.2.1
  Installed CompilerSupportLibraries_jll ─ v0.3.3+0
  Installed OpenSpecFun_jll ────────────── v0.5.3+3
  Installed FFTW ───────────────────────── v1.2.4
  Installed IntelOpenMP_jll ────────────── v2018.0.3+0
  Installed Readables ──────────────────── v0.3.3
  Installed GenericSchur ───────────────── v0.4.0
  Installed TwoFAST ────────────────────── v0.1.3
  Installed BinaryProvider ─────────────── v0.5.10
Updating `~/.julia/environments/v1.6/Project.toml`
  [0dd23c3e] + TwoFAST v0.1.3
Updating `~/.julia/environments/v1.6/Manifest.toml`
  [621f4979] + AbstractFFTs v0.5.0
  [7e558dbc] + ArbNumerics v1.2.1
  [b99e7846] + BinaryProvider v0.5.10
  [e66e0078] + CompilerSupportLibraries_jll v0.3.3+0
  [7a1cc6ca] + FFTW v1.2.4
  [f5851436] + FFTW_jll v3.3.9+5
  [01680d73] + GenericSVD v0.3.0
  [c145ed77] + GenericSchur v0.4.0
  [1d5cc7b8] + IntelOpenMP_jll v2018.0.3+0
  [856f044c] + MKL_jll v2020.2.254+0
  [efe28fd5] + OpenSpecFun_jll v0.5.3+3
  [0d4725de] + Readables v0.3.3
  [189a3867] + Reexport v0.2.0
  [276daf66] + SpecialFunctions v0.10.3
  [0dd23c3e] + TwoFAST v0.1.3
  [56f22d72] + Artifacts
  [2a0f44e3] + Base64
  [ade2ca70] + Dates
  [8bb1440f] + DelimitedFiles
  [b77e0a4c] + InteractiveUtils
  [76f85450] + LibGit2
  [8f399da3] + Libdl
  [37e2e46d] + LinearAlgebra
  [56ddb016] + Logging
  [d6f4376e] + Markdown
  [a63ad114] + Mmap
  [44cfe95a] + Pkg
  [de0858da] + Printf
  [3fa0cd96] + REPL
  [9a3f8284] + Random
  [ea8e919c] + SHA
  [9e88b42a] + Serialization
  [6462fe0b] + Sockets
  [fa267f1f] + TOML
  [8dfed614] + Test
  [cf7118a7] + UUIDs
  [4ec0a83e] + Unicode
   Building ArbNumerics → `~/.julia/scratchspaces/44cfe95a-1eb2-52ea-b672-e2afdf69b78f/329a81d67c64e3a51c176a243b6424fbe39213d0/build.log`
   Building FFTW ───────→ `~/.julia/scratchspaces/44cfe95a-1eb2-52ea-b672-e2afdf69b78f/8b7c16b56936047ca41bf25effa137ae0b381ae8/build.log`
    Testing TwoFAST
Status `/tmp/jl_kbevEZ/Project.toml`
  [7e558dbc] ArbNumerics v1.2.1
  [39dd38d3] Dierckx v0.5.0
  [7a1cc6ca] FFTW v1.2.4
  [276daf66] SpecialFunctions v0.10.3
  [0dd23c3e] TwoFAST v0.1.3
  [8bb1440f] DelimitedFiles
  [37e2e46d] LinearAlgebra
  [56ddb016] Logging
  [8dfed614] Test
Status `/tmp/jl_kbevEZ/Manifest.toml`
  [621f4979] AbstractFFTs v0.5.0
  [7e558dbc] ArbNumerics v1.2.1
  [b99e7846] BinaryProvider v0.5.10
  [e66e0078] CompilerSupportLibraries_jll v0.3.3+0
  [39dd38d3] Dierckx v0.5.0
  [cd4c43a9] Dierckx_jll v0.0.1+0
  [7a1cc6ca] FFTW v1.2.4
  [f5851436] FFTW_jll v3.3.9+5
  [01680d73] GenericSVD v0.3.0
  [c145ed77] GenericSchur v0.4.0
  [1d5cc7b8] IntelOpenMP_jll v2018.0.3+0
  [856f044c] MKL_jll v2020.2.254+0
  [efe28fd5] OpenSpecFun_jll v0.5.3+3
  [0d4725de] Readables v0.3.3
  [189a3867] Reexport v0.2.0
  [276daf66] SpecialFunctions v0.10.3
  [0dd23c3e] TwoFAST v0.1.3
  [56f22d72] Artifacts
  [2a0f44e3] Base64
  [ade2ca70] Dates
  [8bb1440f] DelimitedFiles
  [b77e0a4c] InteractiveUtils
  [76f85450] LibGit2
  [8f399da3] Libdl
  [37e2e46d] LinearAlgebra
  [56ddb016] Logging
  [d6f4376e] Markdown
  [a63ad114] Mmap
  [44cfe95a] Pkg
  [de0858da] Printf
  [3fa0cd96] REPL
  [9a3f8284] Random
  [ea8e919c] SHA
  [9e88b42a] Serialization
  [6462fe0b] Sockets
  [fa267f1f] TOML
  [8dfed614] Test
  [cf7118a7] UUIDs
  [4ec0a83e] Unicode
    Testing Running tests...
WARNING: could not import Printf.ini_hex into ArbNumerics
WARNING: could not import Printf.ini_HEX into ArbNumerics
t = 0.0 sec (0 allocations: 0 byte, 0.0% gc time)
typeof(t) = NamedTuple{(:value, :time, :bytes, :gctime, :gcstats), Tuple{DataType, Float64, Int64, Float64, Base.GC_Diff}}
TwoFAST.PerformanceStats.TimedType = Union{NamedTuple{(:value, :time, :bytes, :gctime, :gcstats), Tuple{T, Float64, Int64, Float64, Base.GC_Diff}}, Tuple{Any, Float64, Int64, Float64, Base.GC_Diff}} where T
t = 4.0e-6 sec (0 allocations: 0 byte, 0.0% gc time)
t: 4.0e-6 sec (0 allocations: 0 byte, 0.0% gc time)
Testing ξ(r), ℓ=0, ν=-1 ... passed
Testing ξ(r), ℓ=0, ν=0 ... passed
Testing ξ(r), ℓ=0, ν=1 ... passed
Testing ξ(r), ℓ=0, ν=2 ... passed
Testing ξ(r), ℓ=0, ν=3 ... passed
Testing ξ(r), ℓ=1, ν=0 ... passed
Testing ξ(r), ℓ=1, ν=1 ... passed
Testing ξ(r), ℓ=1, ν=2 ... passed
Testing ξ(r), ℓ=1, ν=3 ... passed
Testing ξ(r), ℓ=2, ν=-1 ... passed
Testing ξ(r), ℓ=2, ν=0 ... passed
Testing ξ(r), ℓ=2, ν=1 ... passed
Testing ξ(r), ℓ=2, ν=2 ... passed
Testing ξ(r), ℓ=2, ν=3 ... passed
Testing ξ(r), ℓ=3, ν=-1 ... passed
Testing ξ(r), ℓ=3, ν=0 ... passed
Testing ξ(r), ℓ=3, ν=1 ... passed
Testing ξ(r), ℓ=3, ν=2 ... passed
Testing ξ(r), ℓ=3, ν=3 ... passed
Testing ξ(r), ℓ=4, ν=-1 ... passed
Testing ξ(r), ℓ=4, ν=0 ... passed
Testing ξ(r), ℓ=4, ν=1 ... passed
Testing ξ(r), ℓ=4, ν=2 ... passed
Testing ξ(r), ℓ=4, ν=3 ... passed
Testing ξ(r) ... passed
Testing ξ′(r) ... passed
Testing ξ″(r) ... passed
Calculating fmax: 
  dlrec    = 4
  dlrecRg1 = -4
  q=1.1, R=1.1:	  3.547822 seconds (848.79 k allocations: 54.175 MiB, 1.15% gc time, 90.45% compilation time)

  3.549150 seconds (848.85 k allocations: 54.210 MiB, 1.15% gc time, 90.41% compilation time)
ℓ = 1202
Δℓ = 4
ΔℓRg1 = -4
N = 1600
q = 1.1
kmin = 1.0e-5
kmax = 100000.00000000004
χ0 = 0.023029999999999995
RR = RR.tsv
ℓmax = ℓmax.bin
f21 = f21.bin
kmin = 1.0e-5
kmax = 100000.0
dlrec    = 4
dlrecRg1 = -4
Output size: 5741568 bytes = 0.005347251892089844 GiB
Output size: 51264 bytes = 4.774332046508789e-5 GiB
Reading 'out/F21EllCache'...   0.655479 seconds (426.50 k allocations: 24.993 MiB, 4.75% gc time, 98.28% compilation time)
ellmax: 1202
lmaxcache: 1202
fell[:,1,1] = ComplexF64[3.9583795592771634e-52 - 9.695233714158177e-68im, 3.990121772925759e-52 - 9.772979714843386e-68im]
ell 1202, elapsed: 4.100799560546875e-5
ell 1201, elapsed: 1.1117298603057861
ell 1200, elapsed: 0.0004360675811767578
ell 1199, elapsed: 0.00047278404235839844
ell 1198, elapsed: 0.00039887428283691406
ell 1002, elapsed: 0.008210897445678711
ell 1001, elapsed: 0.0003771781921386719
ell 1000, elapsed: 0.0003669261932373047
ell 999, elapsed: 0.0003650188446044922
ell 998, elapsed: 0.0003662109375
ell 902, elapsed: 0.004224061965942383
ell 901, elapsed: 0.00040602684020996094
ell 900, elapsed: 0.00039505958557128906
ell 899, elapsed: 0.0004429817199707031
ell 898, elapsed: 0.0004000663757324219
ell 802, elapsed: 0.004312992095947266
ell 801, elapsed: 0.0004029273986816406
ell 800, elapsed: 0.0003948211669921875
ell 799, elapsed: 0.00039196014404296875
ell 798, elapsed: 0.0003859996795654297
ell 702, elapsed: 0.004235982894897461
ell 701, elapsed: 0.0003941059112548828
ell 700, elapsed: 0.0003788471221923828
ell 699, elapsed: 0.0004069805145263672
ell 698, elapsed: 0.00037789344787597656
ell 602, elapsed: 0.004169940948486328
ell 601, elapsed: 0.00039196014404296875
ell 600, elapsed: 0.0003840923309326172
ell 599, elapsed: 0.0003879070281982422
ell 598, elapsed: 0.0003998279571533203
ell 502, elapsed: 0.004296064376831055
ell 501, elapsed: 0.0003960132598876953
ell 500, elapsed: 0.00039005279541015625
ell 499, elapsed: 0.0003879070281982422
ell 498, elapsed: 0.0004181861877441406
ell 402, elapsed: 0.004299163818359375
ell 401, elapsed: 0.0003981590270996094
ell 400, elapsed: 0.00039386749267578125
ell 399, elapsed: 0.00038814544677734375
ell 398, elapsed: 0.00039696693420410156
ell 302, elapsed: 0.0043010711669921875
ell 301, elapsed: 0.0004010200500488281
ell 300, elapsed: 0.000576019287109375
ell 299, elapsed: 0.0004229545593261719
ell 298, elapsed: 0.00038504600524902344
ell 202, elapsed: 0.004397153854370117
ell 201, elapsed: 0.0004029273986816406
ell 200, elapsed: 0.0003910064697265625
ell 199, elapsed: 0.00039505958557128906
ell 198, elapsed: 0.00039196014404296875
ell 152, elapsed: 0.0022759437561035156
ell 151, elapsed: 0.0003948211669921875
ell 150, elapsed: 0.0003941059112548828
ell 149, elapsed: 0.00039696693420410156
ell 148, elapsed: 0.0003898143768310547
ell 127, elapsed: 0.0012547969818115234
ell 126, elapsed: 0.0004379749298095703
ell 125, elapsed: 0.00039196014404296875
ell 124, elapsed: 0.0003910064697265625
ell 123, elapsed: 0.000392913818359375
ell 114, elapsed: 0.0007650852203369141
ell 113, elapsed: 0.00038909912109375
ell 112, elapsed: 0.0003960132598876953
ell 111, elapsed: 0.00039696693420410156
ell 110, elapsed: 0.00039315223693847656
ell 102, elapsed: 0.0007748603820800781
ell 101, elapsed: 0.0003941059112548828
ell 100, elapsed: 0.000392913818359375
ell 99, elapsed: 0.00039696693420410156
ell 98, elapsed: 0.0004069805145263672
ell 97, elapsed: 0.0004520416259765625
ell 96, elapsed: 0.0004410743713378906
ell 95, elapsed: 0.0004420280456542969
ell 94, elapsed: 0.000492095947265625
ell 93, elapsed: 0.00043702125549316406
ell 92, elapsed: 0.00043892860412597656
ell 91, elapsed: 0.0004439353942871094
ell 90, elapsed: 0.00044989585876464844
ell 89, elapsed: 0.0004398822784423828
ell 88, elapsed: 0.00041484832763671875
ell 87, elapsed: 0.00041794776916503906
ell 86, elapsed: 0.00043010711669921875
ell 85, elapsed: 0.00047087669372558594
ell 84, elapsed: 0.00043702125549316406
ell 83, elapsed: 0.0004248619079589844
ell 82, elapsed: 0.0004210472106933594
ell 81, elapsed: 0.0004248619079589844
ell 80, elapsed: 0.00042700767517089844
ell 79, elapsed: 0.0004298686981201172
ell 78, elapsed: 0.0004239082336425781
ell 77, elapsed: 0.00041604042053222656
ell 76, elapsed: 0.002462148666381836
ell 75, elapsed: 0.00043010711669921875
ell 74, elapsed: 0.00041985511779785156
ell 73, elapsed: 0.0004248619079589844
ell 72, elapsed: 0.0004999637603759766
ell 71, elapsed: 0.00042891502380371094
ell 70, elapsed: 0.0004279613494873047
ell 69, elapsed: 0.0004119873046875
ell 68, elapsed: 0.0004119873046875
ell 67, elapsed: 0.00041604042053222656
ell 66, elapsed: 0.00041604042053222656
ell 65, elapsed: 0.0004169940948486328
ell 64, elapsed: 0.0004169940948486328
ell 63, elapsed: 0.0004391670227050781
ell 62, elapsed: 0.0004189014434814453
ell 61, elapsed: 0.00040912628173828125
ell 60, elapsed: 0.0004069805145263672
ell 59, elapsed: 0.0004119873046875
ell 58, elapsed: 0.00040793418884277344
ell 57, elapsed: 0.0004100799560546875
ell 56, elapsed: 0.0004048347473144531
ell 55, elapsed: 0.0003991127014160156
ell 54, elapsed: 0.0004000663757324219
ell 53, elapsed: 0.00041985511779785156
ell 52, elapsed: 0.000392913818359375
ell 51, elapsed: 0.0003819465637207031
ell 50, elapsed: 0.0003819465637207031
ell 49, elapsed: 0.00039196014404296875
ell 48, elapsed: 0.00038504600524902344
ell 47, elapsed: 0.0003859996795654297
ell 46, elapsed: 0.00039005279541015625
ell 45, elapsed: 0.0003859996795654297
ell 44, elapsed: 0.0004220008850097656
ell 43, elapsed: 0.0003879070281982422
ell 42, elapsed: 0.00038695335388183594
ell 41, elapsed: 0.00040602684020996094
ell 40, elapsed: 0.0004010200500488281
ell 39, elapsed: 0.0004191398620605469
ell 38, elapsed: 0.00040602684020996094
ell 37, elapsed: 0.0004119873046875
ell 36, elapsed: 0.0004069805145263672
ell 35, elapsed: 0.0004100799560546875
ell 34, elapsed: 0.0004439353942871094
ell 33, elapsed: 0.00040912628173828125
ell 32, elapsed: 0.0004210472106933594
ell 31, elapsed: 0.0004138946533203125
ell 30, elapsed: 0.00041985511779785156
ell 29, elapsed: 0.0004229545593261719
ell 28, elapsed: 0.0004189014434814453
ell 27, elapsed: 0.0004239082336425781
ell 26, elapsed: 0.0004191398620605469
ell 25, elapsed: 0.00047898292541503906
ell 24, elapsed: 0.00041103363037109375
ell 23, elapsed: 0.0004119873046875
ell 22, elapsed: 0.00040912628173828125
ell 21, elapsed: 0.00040411949157714844
ell 20, elapsed: 0.0004100799560546875
ell 19, elapsed: 0.0004050731658935547
ell 18, elapsed: 0.0004057884216308594
ell 17, elapsed: 0.00040793418884277344
ell 16, elapsed: 0.0004620552062988281
ell 15, elapsed: 0.0004379749298095703
ell 14, elapsed: 0.0004341602325439453
ell 13, elapsed: 0.00043511390686035156
ell 12, elapsed: 0.0004329681396484375
ell 11, elapsed: 0.000431060791015625
ell 10, elapsed: 0.0004439353942871094
ell 9, elapsed: 0.0004410743713378906
ell 8, elapsed: 0.00043487548828125
ell 7, elapsed: 0.00453495979309082
ell 6, elapsed: 0.00043892860412597656
ell 5, elapsed: 0.00043392181396484375
ell 4, elapsed: 0.0004239082336425781
ell 3, elapsed: 0.0004260540008544922
ell 2, elapsed: 0.00042819976806640625
ell 1, elapsed: 0.0004200935363769531
ell 0, elapsed: 0.00042510032653808594
  1.582509 seconds (1.38 M allocations: 74.543 MiB, 2.32% gc time, 91.81% compilation time)
elapsed: 0.0005280971527099609
step:          0.33266 sec (311.15 k allocations: 16.965 MB, 11.02% gc time)
swapping:      0.000509 sec (0 allocations: 0 byte, 0.0% gc time)
calc_Mellell!: 0.132282 sec (135.745 k allocations: 7.433 MB, 0.0% gc time)
  t0 :  0.0 sec (0 allocations: 0 byte, 0.0% gc time)
  tm2 : 0.0 sec (0 allocations: 0 byte, 0.0% gc time)
  tm2s: 0.0 sec (0 allocations: 0 byte, 0.0% gc time)
  tm4 : 0.0 sec (0 allocations: 0 byte, 0.0% gc time)
  tp2 : 0.0 sec (0 allocations: 0 byte, 0.0% gc time)
  tp2s: 0.0 sec (0 allocations: 0 byte, 0.0% gc time)
  tp4 : 0.0 sec (0 allocations: 0 byte, 0.0% gc time)
calc_wtdll!:   0.754978 sec (509.623 k allocations: 28.197 MB, 0.0% gc time)
calc_wljj!:    0.002052 sec (6 allocations: 96 byte, 0.0% gc time)
mult_prefac!:  0.0 sec (0 allocations: 0 byte, 0.0% gc time)
convert:       0.0 sec (0 allocations: 0 byte, 0.0% gc time)
write:         0.002495 sec (0 allocations: 0 byte, 0.0% gc time)
test_rand_2f1: 0.0 sec (0 allocations: 0 byte, 0.0% gc time)
Closing outfile out/Ml21-cache.bin...   0.000014 seconds
  1.058110 seconds (246.31 k allocations: 14.214 MiB, 42.34% compilation time)
make_phi():   0.010965 seconds (8.18 k allocations: 237.844 KiB)
  0.271776 seconds (87.57 k allocations: 4.748 MiB, 92.63% compilation time)
tskip:       1.8e-5 sec (0 allocations: 0 byte, 0.0% gc time)
tread:       0.006218 sec (17 allocations: 2.125 KB, 0.0% gc time)
tmultphi:    0.043891 sec (21.425 k allocations: 1.287 MB, 0.0% gc time)
tbrfft:      0.004071 sec (0 allocations: 0 byte, 0.0% gc time)
tmultprefac: 0.001369 sec (0 allocations: 0 byte, 0.0% gc time)
toutfunc:    0.173018 sec (64.483 k allocations: 3.329 MB, 0.0% gc time)
Testing R=1.1 ... passed
Calculating fmax: 
  dlrec    = 4
  dlrecRg1 = -4
  q=1.1, R=1.0:	  0.001250 seconds (3.20 k allocations: 275.344 KiB)

  0.001332 seconds (3.25 k allocations: 310.250 KiB)
ℓ = 1202
Δℓ = 4
ΔℓRg1 = -4
N = 1600
q = 1.1
kmin = 1.0e-5
kmax = 100000.00000000004
χ0 = 0.023029999999999995
RR = RR.tsv
ℓmax = ℓmax.bin
f21 = f21.bin
kmin = 1.0e-5
kmax = 100000.0
dlrec    = 4
dlrecRg1 = -4
Output size: 61465536 bytes = 0.05724424123764038 GiB
Output size: 51264 bytes = 4.774332046508789e-5 GiB
Reading 'out/F21EllCache'...   0.000715 seconds (197 allocations: 84.203 KiB)
ellmax: 1202
lmaxcache: 1202
fell[:,1,1] = ComplexF64[809.6031528389767 - 1.9829558194077161e-13im, 0.0 + 0.0im]
ell 1202, elapsed: 3.0994415283203125e-5
ell 1201, elapsed: 0.021442174911499023
ell 1200, elapsed: 0.026082992553710938
ell 1199, elapsed: 0.0002999305725097656
ell 1198, elapsed: 0.0003001689910888672
ell 1197, elapsed: 0.00041604042053222656
ell 1196, elapsed: 0.0003521442413330078
ell 1195, elapsed: 0.00034999847412109375
ell 1194, elapsed: 0.00035190582275390625
ell 1193, elapsed: 0.0003581047058105469
ell 1192, elapsed: 0.0003600120544433594
ell 1191, elapsed: 0.00034999847412109375
ell 1190, elapsed: 0.00035500526428222656
ell 1189, elapsed: 0.00030303001403808594
ell 1188, elapsed: 0.000270843505859375
ell 1187, elapsed: 0.0002930164337158203
ell 1186, elapsed: 0.000270843505859375
ell 1185, elapsed: 0.00026988983154296875
ell 1184, elapsed: 0.0002779960632324219
ell 1183, elapsed: 0.00027108192443847656
ell 1182, elapsed: 0.0002791881561279297
ell 1181, elapsed: 0.00026917457580566406
ell 1180, elapsed: 0.0002770423889160156
ell 1179, elapsed: 0.0002808570861816406
ell 1178, elapsed: 0.000270843505859375
ell 1177, elapsed: 0.0002770423889160156
ell 1176, elapsed: 0.0002701282501220703
ell 1175, elapsed: 0.0002701282501220703
ell 1174, elapsed: 0.0002789497375488281
ell 1173, elapsed: 0.00036406517028808594
ell 1172, elapsed: 0.0003669261932373047
ell 1171, elapsed: 0.0003619194030761719
ell 1170, elapsed: 0.00035381317138671875
ell 1169, elapsed: 0.00036907196044921875
ell 1168, elapsed: 0.00035500526428222656
ell 1167, elapsed: 0.0003600120544433594
ell 1166, elapsed: 0.0003521442413330078
ell 1165, elapsed: 0.000354766845703125
ell 1164, elapsed: 0.0003650188446044922
ell 1163, elapsed: 0.00040793418884277344
ell 1162, elapsed: 0.0003571510314941406
ell 1161, elapsed: 0.00035309791564941406
ell 1160, elapsed: 0.0003421306610107422
ell 1159, elapsed: 0.00035691261291503906
ell 1158, elapsed: 0.00035881996154785156
ell 1157, elapsed: 0.0003650188446044922
ell 1156, elapsed: 0.0003540515899658203
ell 1155, elapsed: 0.0003509521484375
ell 1154, elapsed: 0.0003840923309326172
ell 1153, elapsed: 0.0003478527069091797
ell 1152, elapsed: 0.00035691261291503906
ell 1151, elapsed: 0.00035119056701660156
ell 1150, elapsed: 0.0003490447998046875
ell 1149, elapsed: 0.0003600120544433594
ell 1148, elapsed: 0.0003509521484375
ell 1147, elapsed: 0.0003600120544433594
ell 1146, elapsed: 0.00035500526428222656
ell 1145, elapsed: 0.00034499168395996094
ell 1144, elapsed: 0.0003859996795654297
ell 1143, elapsed: 0.00035190582275390625
ell 1142, elapsed: 0.0003628730773925781
ell 1141, elapsed: 0.0003628730773925781
ell 1140, elapsed: 0.0003669261932373047
ell 1139, elapsed: 0.0003509521484375
ell 1138, elapsed: 0.00034999847412109375
ell 1137, elapsed: 0.0003612041473388672
ell 1136, elapsed: 0.00037097930908203125
ell 1135, elapsed: 0.0003609657287597656
ell 1134, elapsed: 0.00035500526428222656
ell 1133, elapsed: 0.00035500526428222656
ell 1132, elapsed: 0.00036406517028808594
ell 1131, elapsed: 0.0003561973571777344
ell 1130, elapsed: 0.00036597251892089844
ell 1129, elapsed: 0.00034999847412109375
ell 1128, elapsed: 0.0003600120544433594
ell 1127, elapsed: 0.00036597251892089844
ell 1126, elapsed: 0.0003609657287597656
ell 1125, elapsed: 0.0003600120544433594
ell 1124, elapsed: 0.00038504600524902344
ell 1123, elapsed: 0.0003440380096435547
ell 1122, elapsed: 0.00037598609924316406
ell 1121, elapsed: 0.0003669261932373047
ell 1120, elapsed: 0.00036406517028808594
ell 1119, elapsed: 0.0003559589385986328
ell 1118, elapsed: 0.0003559589385986328
ell 1117, elapsed: 0.000370025634765625
ell 1116, elapsed: 0.00036215782165527344
ell 1115, elapsed: 0.0003859996795654297
ell 1114, elapsed: 0.0003571510314941406
ell 1113, elapsed: 0.0003619194030761719
ell 1112, elapsed: 0.00036907196044921875
ell 1111, elapsed: 0.00035691261291503906
ell 1110, elapsed: 0.0003609657287597656
ell 1109, elapsed: 0.00035500526428222656
ell 1108, elapsed: 0.00035190582275390625
ell 1107, elapsed: 0.00036597251892089844
ell 1106, elapsed: 0.0003561973571777344
ell 1105, elapsed: 0.0004210472106933594
ell 1104, elapsed: 0.0003631114959716797
ell 1103, elapsed: 0.00036787986755371094
ell 1102, elapsed: 0.00036406517028808594
ell 1101, elapsed: 0.0003581047058105469
ell 1100, elapsed: 0.0003781318664550781
ell 1099, elapsed: 0.0003581047058105469
ell 1098, elapsed: 0.00036406517028808594
ell 1097, elapsed: 0.0003590583801269531
ell 1096, elapsed: 0.00029206275939941406
ell 1095, elapsed: 0.0003199577331542969
ell 1094, elapsed: 0.00028896331787109375
ell 1093, elapsed: 0.00028705596923828125
ell 1092, elapsed: 0.00029397010803222656
ell 1091, elapsed: 0.00028395652770996094
ell 1090, elapsed: 0.0002951622009277344
ell 1089, elapsed: 0.000286102294921875
ell 1088, elapsed: 0.00029397010803222656
ell 1087, elapsed: 0.00028705596923828125
ell 1086, elapsed: 0.0002868175506591797
ell 1085, elapsed: 0.0002980232238769531
ell 1084, elapsed: 0.00028896331787109375
ell 1083, elapsed: 0.0002918243408203125
ell 1082, elapsed: 0.00031185150146484375
ell 1081, elapsed: 0.00028395652770996094
ell 1080, elapsed: 0.0002949237823486328
ell 1079, elapsed: 0.000286102294921875
ell 1078, elapsed: 0.0002961158752441406
ell 1077, elapsed: 0.000286102294921875
ell 1076, elapsed: 0.0002880096435546875
ell 1075, elapsed: 0.0002930164337158203
ell 1074, elapsed: 0.00028705596923828125
ell 1073, elapsed: 0.00029397010803222656
ell 1072, elapsed: 0.0002880096435546875
ell 1071, elapsed: 0.000286102294921875
ell 1070, elapsed: 0.0002999305725097656
ell 1069, elapsed: 0.004354953765869141
ell 1068, elapsed: 0.0002570152282714844
ell 1067, elapsed: 0.000247955322265625
ell 1066, elapsed: 0.00024819374084472656
ell 1065, elapsed: 0.0002498626708984375
ell 1064, elapsed: 0.0002460479736328125
ell 1063, elapsed: 0.00025081634521484375
ell 1062, elapsed: 0.00024390220642089844
ell 1061, elapsed: 0.00024509429931640625
ell 1060, elapsed: 0.0002970695495605469
ell 1059, elapsed: 0.0002758502960205078
ell 1058, elapsed: 0.0002779960632324219
ell 1057, elapsed: 0.0002770423889160156
ell 1056, elapsed: 0.0003190040588378906
ell 1055, elapsed: 0.0003840923309326172
ell 1054, elapsed: 0.00028896331787109375
ell 1053, elapsed: 0.00029206275939941406
ell 1052, elapsed: 0.0002989768981933594
ell 1051, elapsed: 0.0002949237823486328
ell 1050, elapsed: 0.0003018379211425781
ell 1049, elapsed: 0.0002970695495605469
ell 1048, elapsed: 0.00029587745666503906
ell 1047, elapsed: 0.0002949237823486328
ell 1046, elapsed: 0.00029206275939941406
ell 1045, elapsed: 0.0003008842468261719
ell 1044, elapsed: 0.00028896331787109375
ell 1043, elapsed: 0.0002989768981933594
ell 1042, elapsed: 0.0003840923309326172
ell 1041, elapsed: 0.000370025634765625
ell 1040, elapsed: 0.0003719329833984375
ell 1039, elapsed: 0.00037288665771484375
ell 1038, elapsed: 0.00037598609924316406
ell 1037, elapsed: 0.00037097930908203125
ell 1036, elapsed: 0.00036787986755371094
ell 1035, elapsed: 0.00037598609924316406
ell 1034, elapsed: 0.000370025634765625
ell 1033, elapsed: 0.000469207763671875
ell 1032, elapsed: 0.0003669261932373047
ell 1031, elapsed: 0.0003781318664550781
ell 1030, elapsed: 0.00036597251892089844
ell 1029, elapsed: 0.000370025634765625
ell 1028, elapsed: 0.0003788471221923828
ell 1027, elapsed: 0.000370025634765625
ell 1026, elapsed: 0.0003771781921386719
ell 1025, elapsed: 0.00039696693420410156
ell 1024, elapsed: 0.0024940967559814453
ell 1023, elapsed: 0.00037980079650878906
ell 1022, elapsed: 0.000370025634765625
ell 1021, elapsed: 0.00038123130798339844
ell 1020, elapsed: 0.00037288665771484375
ell 1019, elapsed: 0.0003991127014160156
ell 1018, elapsed: 0.0003790855407714844
ell 1017, elapsed: 0.00037384033203125
ell 1016, elapsed: 0.0003769397735595703
ell 1015, elapsed: 0.0003631114959716797
ell 1014, elapsed: 0.00036787986755371094
ell 1013, elapsed: 0.00037598609924316406
ell 1012, elapsed: 0.0003719329833984375
ell 1011, elapsed: 0.0003750324249267578
ell 1010, elapsed: 0.00036907196044921875
ell 1009, elapsed: 0.0003609657287597656
ell 1008, elapsed: 0.00037407875061035156
ell 1007, elapsed: 0.0003578662872314453
ell 1006, elapsed: 0.0003650188446044922
ell 1005, elapsed: 0.0003559589385986328
ell 1004, elapsed: 0.0003609657287597656
ell 1003, elapsed: 0.00037097930908203125
ell 1002, elapsed: 0.00035500526428222656
ell 1001, elapsed: 0.00035691261291503906
ell 1000, elapsed: 0.004461050033569336
ell 999, elapsed: 0.0003631114959716797
ell 998, elapsed: 0.0003788471221923828
ell 997, elapsed: 0.00034809112548828125
ell 996, elapsed: 0.0003600120544433594
ell 995, elapsed: 0.0003521442413330078
ell 994, elapsed: 0.0003509521484375
ell 993, elapsed: 0.00036597251892089844
ell 992, elapsed: 0.0003509521484375
ell 991, elapsed: 0.0004069805145263672
ell 990, elapsed: 0.00035119056701660156
ell 989, elapsed: 0.00034618377685546875
ell 988, elapsed: 0.0003669261932373047
ell 987, elapsed: 0.0003559589385986328
ell 986, elapsed: 0.0003650188446044922
ell 985, elapsed: 0.0003638267517089844
ell 984, elapsed: 0.0003540515899658203
ell 983, elapsed: 0.0003821849822998047
ell 982, elapsed: 0.0003609657287597656
ell 981, elapsed: 0.00042891502380371094
ell 980, elapsed: 0.00035500526428222656
ell 979, elapsed: 0.000370025634765625
ell 978, elapsed: 0.00035691261291503906
ell 977, elapsed: 0.0003669261932373047
ell 976, elapsed: 0.00037097930908203125
ell 975, elapsed: 0.00036597251892089844
ell 974, elapsed: 0.0003719329833984375
ell 973, elapsed: 0.0003669261932373047
ell 972, elapsed: 0.0003631114959716797
ell 971, elapsed: 0.00035190582275390625
ell 970, elapsed: 0.0003669261932373047
ell 969, elapsed: 0.0003769397735595703
ell 968, elapsed: 0.0003600120544433594
ell 967, elapsed: 0.00036406517028808594
ell 966, elapsed: 0.0003650188446044922
ell 965, elapsed: 0.0003619194030761719
ell 964, elapsed: 0.00037097930908203125
ell 963, elapsed: 0.0003581047058105469
ell 962, elapsed: 0.0004119873046875
ell 961, elapsed: 0.000370025634765625
ell 960, elapsed: 0.0003650188446044922
ell 959, elapsed: 0.0003688335418701172
ell 958, elapsed: 0.0003631114959716797
ell 957, elapsed: 0.0003638267517089844
ell 956, elapsed: 0.0003490447998046875
ell 955, elapsed: 0.00036907196044921875
ell 954, elapsed: 0.0003800392150878906
ell 953, elapsed: 0.00036597251892089844
ell 952, elapsed: 0.0003800392150878906
ell 951, elapsed: 0.00037407875061035156
ell 950, elapsed: 0.0003600120544433594
ell 949, elapsed: 0.0003688335418701172
ell 948, elapsed: 0.0003600120544433594
ell 947, elapsed: 0.00037217140197753906
ell 946, elapsed: 0.0003750324249267578
ell 945, elapsed: 0.0003628730773925781
ell 944, elapsed: 0.00037288665771484375
ell 943, elapsed: 0.00038504600524902344
ell 942, elapsed: 0.0003600120544433594
ell 941, elapsed: 0.0003631114959716797
ell 940, elapsed: 0.0003590583801269531
ell 939, elapsed: 0.00036597251892089844
ell 938, elapsed: 0.0003578662872314453
ell 937, elapsed: 0.0003590583801269531
ell 936, elapsed: 0.00036787986755371094
ell 935, elapsed: 0.00035691261291503906
ell 934, elapsed: 0.0003669261932373047
ell 933, elapsed: 0.0004010200500488281
ell 932, elapsed: 0.0003631114959716797
ell 931, elapsed: 0.000370025634765625
ell 930, elapsed: 0.0003631114959716797
ell 929, elapsed: 0.00036907196044921875
ell 928, elapsed: 0.00036215782165527344
ell 927, elapsed: 0.0003981590270996094
ell 926, elapsed: 0.0003609657287597656
ell 925, elapsed: 0.00036215782165527344
ell 924, elapsed: 0.0004239082336425781
ell 923, elapsed: 0.0003490447998046875
ell 922, elapsed: 0.0003581047058105469
ell 921, elapsed: 0.0003597736358642578
ell 920, elapsed: 0.0003600120544433594
ell 919, elapsed: 0.00037789344787597656
ell 918, elapsed: 0.00036716461181640625
ell 917, elapsed: 0.0003781318664550781
ell 916, elapsed: 0.0003590583801269531
ell 915, elapsed: 0.0003628730773925781
ell 914, elapsed: 0.00037097930908203125
ell 913, elapsed: 0.00035500526428222656
ell 912, elapsed: 0.0003628730773925781
ell 911, elapsed: 0.00037217140197753906
ell 910, elapsed: 0.0003590583801269531
ell 909, elapsed: 0.00037479400634765625
ell 908, elapsed: 0.0003600120544433594
ell 907, elapsed: 0.00036907196044921875
ell 906, elapsed: 0.0003619194030761719
ell 905, elapsed: 0.0003578662872314453
ell 904, elapsed: 0.0004010200500488281
ell 903, elapsed: 0.0003600120544433594
ell 902, elapsed: 0.000370025634765625
ell 901, elapsed: 0.0003638267517089844
ell 900, elapsed: 0.0003619194030761719
ell 899, elapsed: 0.0003719329833984375
ell 898, elapsed: 0.0003619194030761719
ell 897, elapsed: 0.00036597251892089844
ell 896, elapsed: 0.0004971027374267578
ell 895, elapsed: 0.0003750324249267578
ell 894, elapsed: 0.0003609657287597656
ell 893, elapsed: 0.0003380775451660156
ell 892, elapsed: 0.0005319118499755859
ell 891, elapsed: 0.0003688335418701172
ell 890, elapsed: 0.0003590583801269531
ell 889, elapsed: 0.0003650188446044922
ell 888, elapsed: 0.0003600120544433594
ell 887, elapsed: 0.0003581047058105469
ell 886, elapsed: 0.0003590583801269531
ell 885, elapsed: 0.0005409717559814453
ell 884, elapsed: 0.0003650188446044922
ell 883, elapsed: 0.00035309791564941406
ell 882, elapsed: 0.0003528594970703125
ell 881, elapsed: 0.0003600120544433594
ell 880, elapsed: 0.0003578662872314453
ell 879, elapsed: 0.00035500526428222656
ell 878, elapsed: 0.0003650188446044922
ell 877, elapsed: 0.0003571510314941406
ell 876, elapsed: 0.0004191398620605469
ell 875, elapsed: 0.0003528594970703125
ell 874, elapsed: 0.00036597251892089844
ell 873, elapsed: 0.0003590583801269531
ell 872, elapsed: 0.00036406517028808594
ell 871, elapsed: 0.00035691261291503906
ell 870, elapsed: 0.0003619194030761719
ell 869, elapsed: 0.00036907196044921875
ell 868, elapsed: 0.0003681182861328125
ell 867, elapsed: 0.00037097930908203125
ell 866, elapsed: 0.0003600120544433594
ell 865, elapsed: 0.00037097930908203125
ell 864, elapsed: 0.0003681182861328125
ell 863, elapsed: 0.00036716461181640625
ell 862, elapsed: 0.0003681182861328125
ell 861, elapsed: 0.00036907196044921875
ell 860, elapsed: 0.00036787986755371094
ell 859, elapsed: 0.00037288665771484375
ell 858, elapsed: 0.00034308433532714844
ell 857, elapsed: 0.00447392463684082
ell 856, elapsed: 0.00036597251892089844
ell 855, elapsed: 0.0003781318664550781
ell 854, elapsed: 0.0003600120544433594
ell 853, elapsed: 0.00036716461181640625
ell 852, elapsed: 0.0003600120544433594
ell 851, elapsed: 0.0003650188446044922
ell 850, elapsed: 0.00036787986755371094
ell 849, elapsed: 0.00036787986755371094
ell 848, elapsed: 0.0003879070281982422
ell 847, elapsed: 0.0003771781921386719
ell 846, elapsed: 0.00036215782165527344
ell 845, elapsed: 0.00037384033203125
ell 844, elapsed: 0.0003609657287597656
ell 843, elapsed: 0.00036907196044921875
ell 842, elapsed: 0.00037097930908203125
ell 841, elapsed: 0.00036597251892089844
ell 840, elapsed: 0.000370025634765625
ell 839, elapsed: 0.0003612041473388672
ell 838, elapsed: 0.00041413307189941406
ell 837, elapsed: 0.000370025634765625
ell 836, elapsed: 0.000370025634765625
ell 835, elapsed: 0.0003781318664550781
ell 834, elapsed: 0.0003612041473388672
ell 833, elapsed: 0.0003609657287597656
ell 832, elapsed: 0.00037288665771484375
ell 831, elapsed: 0.0003619194030761719
ell 830, elapsed: 0.000370025634765625
ell 829, elapsed: 0.0003609657287597656
ell 828, elapsed: 0.0004000663757324219
ell 827, elapsed: 0.0003521442413330078
ell 826, elapsed: 0.0003619194030761719
ell 825, elapsed: 0.0003571510314941406
ell 824, elapsed: 0.0003609657287597656
ell 823, elapsed: 0.0003581047058105469
ell 822, elapsed: 0.0003559589385986328
ell 821, elapsed: 0.00035309791564941406
ell 820, elapsed: 0.0003650188446044922
ell 819, elapsed: 0.0003731250762939453
ell 818, elapsed: 0.0003650188446044922
ell 817, elapsed: 0.0003502368927001953
ell 816, elapsed: 0.00035691261291503906
ell 815, elapsed: 0.0003638267517089844
ell 814, elapsed: 0.00035381317138671875
ell 813, elapsed: 0.0003600120544433594
ell 812, elapsed: 0.0003521442413330078
ell 811, elapsed: 0.00034999847412109375
ell 810, elapsed: 0.0003609657287597656
ell 809, elapsed: 0.0004100799560546875
ell 808, elapsed: 0.0003638267517089844
ell 807, elapsed: 0.0003540515899658203
ell 806, elapsed: 0.00035500526428222656
ell 805, elapsed: 0.00037097930908203125
ell 804, elapsed: 0.0003590583801269531
ell 803, elapsed: 0.00036406517028808594
ell 802, elapsed: 0.00035500526428222656
ell 801, elapsed: 0.0003571510314941406
ell 800, elapsed: 0.0003631114959716797
ell 799, elapsed: 0.00038814544677734375
ell 798, elapsed: 0.0003638267517089844
ell 797, elapsed: 0.0003600120544433594
ell 796, elapsed: 0.00036597251892089844
ell 795, elapsed: 0.000370025634765625
ell 794, elapsed: 0.0003612041473388672
ell 793, elapsed: 0.0003688335418701172
ell 792, elapsed: 0.0003600120544433594
ell 791, elapsed: 0.0003609657287597656
ell 790, elapsed: 0.00036406517028808594
ell 789, elapsed: 0.0003972053527832031
ell 788, elapsed: 0.0003559589385986328
ell 787, elapsed: 0.0003650188446044922
ell 786, elapsed: 0.0003609657287597656
ell 785, elapsed: 0.000370025634765625
ell 784, elapsed: 0.0003609657287597656
ell 783, elapsed: 0.0003731250762939453
ell 782, elapsed: 0.0003612041473388672
ell 781, elapsed: 0.000370025634765625
ell 780, elapsed: 0.0003609657287597656
ell 779, elapsed: 0.00037479400634765625
ell 778, elapsed: 0.00036978721618652344
ell 777, elapsed: 0.0003669261932373047
ell 776, elapsed: 0.0003669261932373047
ell 775, elapsed: 0.0003631114959716797
ell 774, elapsed: 0.0003669261932373047
ell 773, elapsed: 0.00037288665771484375
ell 772, elapsed: 0.00036787986755371094
ell 771, elapsed: 0.0003731250762939453
ell 770, elapsed: 0.0003681182861328125
ell 769, elapsed: 0.0003581047058105469
ell 768, elapsed: 0.00036907196044921875
ell 767, elapsed: 0.00035691261291503906
ell 766, elapsed: 0.00037288665771484375
ell 765, elapsed: 0.0003609657287597656
ell 764, elapsed: 0.0003600120544433594
ell 763, elapsed: 0.00037598609924316406
ell 762, elapsed: 0.0003581047058105469
ell 761, elapsed: 0.000370025634765625
ell 760, elapsed: 0.0003981590270996094
ell 759, elapsed: 0.00035309791564941406
ell 758, elapsed: 0.0005259513854980469
ell 757, elapsed: 0.000370025634765625
ell 756, elapsed: 0.00037789344787597656
ell 755, elapsed: 0.000370025634765625
ell 754, elapsed: 0.00037479400634765625
ell 753, elapsed: 0.0003871917724609375
ell 752, elapsed: 0.00036597251892089844
ell 751, elapsed: 0.0004050731658935547
ell 750, elapsed: 0.0003628730773925781
ell 749, elapsed: 0.0003650188446044922
ell 748, elapsed: 0.00037097930908203125
ell 747, elapsed: 0.0003571510314941406
ell 746, elapsed: 0.0003662109375
ell 745, elapsed: 0.0003559589385986328
ell 744, elapsed: 0.00036215782165527344
ell 743, elapsed: 0.0003650188446044922
ell 742, elapsed: 0.00035881996154785156
ell 741, elapsed: 0.0003819465637207031
ell 740, elapsed: 0.0003559589385986328
ell 739, elapsed: 0.0003581047058105469
ell 738, elapsed: 0.0003631114959716797
ell 737, elapsed: 0.00036215782165527344
ell 736, elapsed: 0.0003809928894042969
ell 735, elapsed: 0.0003631114959716797
ell 734, elapsed: 0.00035500526428222656
ell 733, elapsed: 0.0003712177276611328
ell 732, elapsed: 0.0003600120544433594
ell 731, elapsed: 0.0003650188446044922
ell 730, elapsed: 0.0003619194030761719
ell 729, elapsed: 0.000370025634765625
ell 728, elapsed: 0.0003581047058105469
ell 727, elapsed: 0.0003731250762939453
ell 726, elapsed: 0.00036787986755371094
ell 725, elapsed: 0.0003600120544433594
ell 724, elapsed: 0.0003609657287597656
ell 723, elapsed: 0.0003609657287597656
ell 722, elapsed: 0.0003540515899658203
ell 721, elapsed: 0.00035381317138671875
ell 720, elapsed: 0.0003380775451660156
ell 719, elapsed: 0.0003440380096435547
ell 718, elapsed: 0.0003631114959716797
ell 717, elapsed: 0.0003418922424316406
ell 716, elapsed: 0.0003650188446044922
ell 715, elapsed: 0.0003609657287597656
ell 714, elapsed: 0.0003631114959716797
ell 713, elapsed: 0.0003662109375
ell 712, elapsed: 0.004415988922119141
ell 711, elapsed: 0.0003681182861328125
ell 710, elapsed: 0.0003597736358642578
ell 709, elapsed: 0.00036406517028808594
ell 708, elapsed: 0.0003600120544433594
ell 707, elapsed: 0.000370025634765625
ell 706, elapsed: 0.00036907196044921875
ell 705, elapsed: 0.00036406517028808594
ell 704, elapsed: 0.0003719329833984375
ell 703, elapsed: 0.00035691261291503906
ell 702, elapsed: 0.00041794776916503906
ell 701, elapsed: 0.00035691261291503906
ell 700, elapsed: 0.00036597251892089844
ell 699, elapsed: 0.0003628730773925781
ell 698, elapsed: 0.0003581047058105469
ell 697, elapsed: 0.0003650188446044922
ell 696, elapsed: 0.0003600120544433594
ell 695, elapsed: 0.0003590583801269531
ell 694, elapsed: 0.00036716461181640625
ell 693, elapsed: 0.00037407875061035156
ell 692, elapsed: 0.00037384033203125
ell 691, elapsed: 0.0003490447998046875
ell 690, elapsed: 0.0003590583801269531
ell 689, elapsed: 0.00036597251892089844
ell 688, elapsed: 0.0003571510314941406
ell 687, elapsed: 0.00036597251892089844
ell 686, elapsed: 0.00036215782165527344
ell 685, elapsed: 0.0003628730773925781
ell 684, elapsed: 0.0003719329833984375
ell 683, elapsed: 0.00037217140197753906
ell 682, elapsed: 0.0003750324249267578
ell 681, elapsed: 0.0003609657287597656
ell 680, elapsed: 0.0003650188446044922
ell 679, elapsed: 0.00036716461181640625
ell 678, elapsed: 0.00036597251892089844
ell 677, elapsed: 0.000370025634765625
ell 676, elapsed: 0.00036907196044921875
ell 675, elapsed: 0.0003628730773925781
ell 674, elapsed: 0.00037407875061035156
ell 673, elapsed: 0.001756906509399414
ell 672, elapsed: 0.0003750324249267578
ell 671, elapsed: 0.0003418922424316406
ell 670, elapsed: 0.00037217140197753906
ell 669, elapsed: 0.0003731250762939453
ell 668, elapsed: 0.0003638267517089844
ell 667, elapsed: 0.0005931854248046875
ell 666, elapsed: 0.00033211708068847656
ell 665, elapsed: 0.00038886070251464844
ell 664, elapsed: 0.0005478858947753906
ell 663, elapsed: 0.0003619194030761719
ell 662, elapsed: 0.0003609657287597656
ell 661, elapsed: 0.00035691261291503906
ell 660, elapsed: 0.0003590583801269531
ell 659, elapsed: 0.0003509521484375
ell 658, elapsed: 0.00040602684020996094
ell 657, elapsed: 0.00036406517028808594
ell 656, elapsed: 0.0003559589385986328
ell 655, elapsed: 0.00036406517028808594
ell 654, elapsed: 0.0003559589385986328
ell 653, elapsed: 0.00036215782165527344
ell 652, elapsed: 0.0003609657287597656
ell 651, elapsed: 0.00037598609924316406
ell 650, elapsed: 0.0003619194030761719
ell 649, elapsed: 0.0003559589385986328
ell 648, elapsed: 0.00038504600524902344
ell 647, elapsed: 0.0003650188446044922
ell 646, elapsed: 0.00036215782165527344
ell 645, elapsed: 0.000370025634765625
ell 644, elapsed: 0.0003590583801269531
ell 643, elapsed: 0.00035500526428222656
ell 642, elapsed: 0.000370025634765625
ell 641, elapsed: 0.0003540515899658203
ell 640, elapsed: 0.00036907196044921875
ell 639, elapsed: 0.00036406517028808594
ell 638, elapsed: 0.0003819465637207031
ell 637, elapsed: 0.0003647804260253906
ell 636, elapsed: 0.00036597251892089844
ell 635, elapsed: 0.0003731250762939453
ell 634, elapsed: 0.00037097930908203125
ell 633, elapsed: 0.0003769397735595703
ell 632, elapsed: 0.00036907196044921875
ell 631, elapsed: 0.0003628730773925781
ell 630, elapsed: 0.0003669261932373047
ell 629, elapsed: 0.00039005279541015625
ell 628, elapsed: 0.0003719329833984375
ell 627, elapsed: 0.0003650188446044922
ell 626, elapsed: 0.0003650188446044922
ell 625, elapsed: 0.00037097930908203125
ell 624, elapsed: 0.00036716461181640625
ell 623, elapsed: 0.0003750324249267578
ell 622, elapsed: 0.0003590583801269531
ell 621, elapsed: 0.0003390312194824219
ell 620, elapsed: 0.00039887428283691406
ell 619, elapsed: 0.0003647804260253906
ell 618, elapsed: 0.000347137451171875
ell 617, elapsed: 0.0003609657287597656
ell 616, elapsed: 0.0003628730773925781
ell 615, elapsed: 0.0003681182861328125
ell 614, elapsed: 0.00037598609924316406
ell 613, elapsed: 0.00037598609924316406
ell 612, elapsed: 0.00037598609924316406
ell 611, elapsed: 0.0003790855407714844
ell 610, elapsed: 0.004349946975708008
ell 609, elapsed: 0.0003590583801269531
ell 608, elapsed: 0.0003650188446044922
ell 607, elapsed: 0.00035500526428222656
ell 606, elapsed: 0.0003540515899658203
ell 605, elapsed: 0.00035500526428222656
ell 604, elapsed: 0.0003509521484375
ell 603, elapsed: 0.0003609657287597656
ell 602, elapsed: 0.00035190582275390625
ell 601, elapsed: 0.0003559589385986328
ell 600, elapsed: 0.00034499168395996094
ell 599, elapsed: 0.0003561973571777344
ell 598, elapsed: 0.0003578662872314453
ell 597, elapsed: 0.0003559589385986328
ell 596, elapsed: 0.0003681182861328125
ell 595, elapsed: 0.0003631114959716797
ell 594, elapsed: 0.0003619194030761719
ell 593, elapsed: 0.00036907196044921875
ell 592, elapsed: 0.0003521442413330078
ell 591, elapsed: 0.000354766845703125
ell 590, elapsed: 0.00026798248291015625
ell 589, elapsed: 0.0002689361572265625
ell 588, elapsed: 0.0002720355987548828
ell 587, elapsed: 0.00026702880859375
ell 586, elapsed: 0.00027489662170410156
ell 585, elapsed: 0.00027298927307128906
ell 584, elapsed: 0.00026798248291015625
ell 583, elapsed: 0.0002751350402832031
ell 582, elapsed: 0.00026702880859375
ell 581, elapsed: 0.0002789497375488281
ell 580, elapsed: 0.00026798248291015625
ell 579, elapsed: 0.00036215782165527344
ell 578, elapsed: 0.0003771781921386719
ell 577, elapsed: 0.0003600120544433594
ell 576, elapsed: 0.0003650188446044922
ell 575, elapsed: 0.0003619194030761719
ell 574, elapsed: 0.00037288665771484375
ell 573, elapsed: 0.0003578662872314453
ell 572, elapsed: 0.00036406517028808594
ell 571, elapsed: 0.00034999847412109375
ell 570, elapsed: 0.0003440380096435547
ell 569, elapsed: 0.00037789344787597656
ell 568, elapsed: 0.00042510032653808594
ell 567, elapsed: 0.00036907196044921875
ell 566, elapsed: 0.00037598609924316406
ell 565, elapsed: 0.0003681182861328125
ell 564, elapsed: 0.0003719329833984375
ell 563, elapsed: 0.0003631114959716797
ell 562, elapsed: 0.00036215782165527344
ell 561, elapsed: 0.000370025634765625
ell 560, elapsed: 0.0003669261932373047
ell 559, elapsed: 0.0004010200500488281
ell 558, elapsed: 0.00036716461181640625
ell 557, elapsed: 0.0003628730773925781
ell 556, elapsed: 0.0003719329833984375
ell 555, elapsed: 0.0003590583801269531
ell 554, elapsed: 0.00037097930908203125
ell 553, elapsed: 0.0003631114959716797
ell 552, elapsed: 0.0003590583801269531
ell 551, elapsed: 0.00036215782165527344
ell 550, elapsed: 0.0003578662872314453
ell 549, elapsed: 0.00039005279541015625
ell 548, elapsed: 0.0003669261932373047
ell 547, elapsed: 0.0003650188446044922
ell 546, elapsed: 0.0003559589385986328
ell 545, elapsed: 0.0003609657287597656
ell 544, elapsed: 0.00036907196044921875
ell 543, elapsed: 0.00037097930908203125
ell 542, elapsed: 0.0003681182861328125
ell 541, elapsed: 0.0003650188446044922
ell 540, elapsed: 0.00038909912109375
ell 539, elapsed: 0.00037384033203125
ell 538, elapsed: 0.000370025634765625
ell 537, elapsed: 0.0003750324249267578
ell 536, elapsed: 0.0003571510314941406
ell 535, elapsed: 0.0003600120544433594
ell 534, elapsed: 0.00037097930908203125
ell 533, elapsed: 0.0003619194030761719
ell 532, elapsed: 0.00037384033203125
ell 531, elapsed: 0.0003609657287597656
ell 530, elapsed: 0.0003809928894042969
ell 529, elapsed: 0.00036907196044921875
ell 528, elapsed: 0.0003681182861328125
ell 527, elapsed: 0.0003681182861328125
ell 526, elapsed: 0.0003609657287597656
ell 525, elapsed: 0.00037407875061035156
ell 524, elapsed: 0.0003688335418701172
ell 523, elapsed: 0.00036406517028808594
ell 522, elapsed: 0.000370025634765625
ell 521, elapsed: 0.0003650188446044922
ell 520, elapsed: 0.0003600120544433594
ell 519, elapsed: 0.00036907196044921875
ell 518, elapsed: 0.0003650188446044922
ell 517, elapsed: 0.0003669261932373047
ell 516, elapsed: 0.0003662109375
ell 515, elapsed: 0.0003731250762939453
ell 514, elapsed: 0.0003821849822998047
ell 513, elapsed: 0.00036597251892089844
ell 512, elapsed: 0.00037288665771484375
ell 511, elapsed: 0.00039005279541015625
ell 510, elapsed: 0.00036907196044921875
ell 509, elapsed: 0.00035500526428222656
ell 508, elapsed: 0.0003650188446044922
ell 507, elapsed: 0.00037097930908203125
ell 506, elapsed: 0.0003750324249267578
ell 505, elapsed: 0.00037097930908203125
ell 504, elapsed: 0.0003688335418701172
ell 503, elapsed: 0.0003619194030761719
ell 502, elapsed: 0.0003769397735595703
ell 501, elapsed: 0.00036215782165527344
ell 500, elapsed: 0.00037598609924316406
ell 499, elapsed: 0.00037407875061035156
ell 498, elapsed: 0.0003790855407714844
ell 497, elapsed: 0.0003750324249267578
ell 496, elapsed: 0.0003681182861328125
ell 495, elapsed: 0.00036907196044921875
ell 494, elapsed: 0.0003688335418701172
ell 493, elapsed: 0.00036215782165527344
ell 492, elapsed: 0.0003781318664550781
ell 491, elapsed: 0.0003521442413330078
ell 490, elapsed: 0.00034999847412109375
ell 489, elapsed: 0.0003390312194824219
ell 488, elapsed: 0.0003650188446044922
ell 487, elapsed: 0.0003619194030761719
ell 486, elapsed: 0.0003609657287597656
ell 485, elapsed: 0.0003681182861328125
ell 484, elapsed: 0.00036406517028808594
ell 483, elapsed: 0.000370025634765625
ell 482, elapsed: 0.0003848075866699219
ell 481, elapsed: 0.00034689903259277344
ell 480, elapsed: 0.00037598609924316406
ell 479, elapsed: 0.0003609657287597656
ell 478, elapsed: 0.00037217140197753906
ell 477, elapsed: 0.00036787986755371094
ell 476, elapsed: 0.00036597251892089844
ell 475, elapsed: 0.00037980079650878906
ell 474, elapsed: 0.0003638267517089844
ell 473, elapsed: 0.0003750324249267578
ell 472, elapsed: 0.0003650188446044922
ell 471, elapsed: 0.0003368854522705078
ell 470, elapsed: 0.0003750324249267578
ell 469, elapsed: 0.0003781318664550781
ell 468, elapsed: 0.00037789344787597656
ell 467, elapsed: 0.0003769397735595703
ell 466, elapsed: 0.0003719329833984375
ell 465, elapsed: 0.00037598609924316406
ell 464, elapsed: 0.00036787986755371094
ell 463, elapsed: 0.001116037368774414
ell 462, elapsed: 0.0003662109375
ell 461, elapsed: 0.00037384033203125
ell 460, elapsed: 0.0003590583801269531
ell 459, elapsed: 0.00036597251892089844
ell 458, elapsed: 0.00037288665771484375
ell 457, elapsed: 0.0003669261932373047
ell 456, elapsed: 0.000370025634765625
ell 455, elapsed: 0.0003790855407714844
ell 454, elapsed: 0.00036406517028808594
ell 453, elapsed: 0.00037598609924316406
ell 452, elapsed: 0.0003600120544433594
ell 451, elapsed: 0.000370025634765625
ell 450, elapsed: 0.0003628730773925781
ell 449, elapsed: 0.0003559589385986328
ell 448, elapsed: 0.000370025634765625
ell 447, elapsed: 0.0003631114959716797
ell 446, elapsed: 0.0003771781921386719
ell 445, elapsed: 0.00039696693420410156
ell 444, elapsed: 0.00037097930908203125
ell 443, elapsed: 0.00037217140197753906
ell 442, elapsed: 0.00036597251892089844
ell 441, elapsed: 0.00037384033203125
ell 440, elapsed: 0.0003638267517089844
ell 439, elapsed: 0.00036597251892089844
ell 438, elapsed: 0.00037097930908203125
ell 437, elapsed: 0.0003619194030761719
ell 436, elapsed: 0.00035500526428222656
ell 435, elapsed: 0.0003330707550048828
ell 434, elapsed: 0.00037217140197753906
ell 433, elapsed: 0.0005638599395751953
ell 432, elapsed: 0.00037479400634765625
ell 431, elapsed: 0.0005159378051757812
ell 430, elapsed: 0.00033092498779296875
ell 429, elapsed: 0.00036406517028808594
ell 428, elapsed: 0.00035691261291503906
ell 427, elapsed: 0.000370025634765625
ell 426, elapsed: 0.0003769397735595703
ell 425, elapsed: 0.0003561973571777344
ell 424, elapsed: 0.0003578662872314453
ell 423, elapsed: 0.0003478527069091797
ell 422, elapsed: 0.00034809112548828125
ell 421, elapsed: 0.0003590583801269531
ell 420, elapsed: 0.00035500526428222656
ell 419, elapsed: 0.0003631114959716797
ell 418, elapsed: 0.00035190582275390625
ell 417, elapsed: 0.00043201446533203125
ell 416, elapsed: 0.0003540515899658203
ell 415, elapsed: 0.00031876564025878906
ell 414, elapsed: 0.0003559589385986328
ell 413, elapsed: 0.0003540515899658203
ell 412, elapsed: 0.0003609657287597656
ell 411, elapsed: 0.00036787986755371094
ell 410, elapsed: 0.00035500526428222656
ell 409, elapsed: 0.00036406517028808594
ell 408, elapsed: 0.00034999847412109375
ell 407, elapsed: 0.0003559589385986328
ell 406, elapsed: 0.0003559589385986328
ell 405, elapsed: 0.0003561973571777344
ell 404, elapsed: 0.00035500526428222656
ell 403, elapsed: 0.00035881996154785156
ell 402, elapsed: 0.00035190582275390625
ell 401, elapsed: 0.0003631114959716797
ell 400, elapsed: 0.00034999847412109375
ell 399, elapsed: 0.0003590583801269531
ell 398, elapsed: 0.0003528594970703125
ell 397, elapsed: 0.00040912628173828125
ell 396, elapsed: 0.0003559589385986328
ell 395, elapsed: 0.0003650188446044922
ell 394, elapsed: 0.0003647804260253906
ell 393, elapsed: 0.0003609657287597656
ell 392, elapsed: 0.00034499168395996094
ell 391, elapsed: 0.0002880096435546875
ell 390, elapsed: 0.00028395652770996094
ell 389, elapsed: 0.0002989768981933594
ell 388, elapsed: 0.0002868175506591797
ell 387, elapsed: 0.00029206275939941406
ell 386, elapsed: 0.0003190040588378906
ell 385, elapsed: 0.0002751350402832031
ell 384, elapsed: 0.00028204917907714844
ell 383, elapsed: 0.0002770423889160156
ell 382, elapsed: 0.0002808570861816406
ell 381, elapsed: 0.0002760887145996094
ell 380, elapsed: 0.0002720355987548828
ell 379, elapsed: 0.0002818107604980469
ell 378, elapsed: 0.0002770423889160156
ell 377, elapsed: 0.00027680397033691406
ell 376, elapsed: 0.0002739429473876953
ell 375, elapsed: 0.0002720355987548828
ell 374, elapsed: 0.0002799034118652344
ell 373, elapsed: 0.00038909912109375
ell 372, elapsed: 0.00037598609924316406
ell 371, elapsed: 0.00036406517028808594
ell 370, elapsed: 0.00037097930908203125
ell 369, elapsed: 0.0003840923309326172
ell 368, elapsed: 0.0003688335418701172
ell 367, elapsed: 0.0003681182861328125
ell 366, elapsed: 0.00033092498779296875
ell 365, elapsed: 0.0003368854522705078
ell 364, elapsed: 0.000331878662109375
ell 363, elapsed: 0.0003960132598876953
ell 362, elapsed: 0.0003750324249267578
ell 361, elapsed: 0.0003597736358642578
ell 360, elapsed: 0.00037217140197753906
ell 359, elapsed: 0.00035881996154785156
ell 358, elapsed: 0.0003719329833984375
ell 357, elapsed: 0.00036787986755371094
ell 356, elapsed: 0.0003650188446044922
ell 355, elapsed: 0.00036907196044921875
ell 354, elapsed: 0.0003600120544433594
ell 353, elapsed: 0.0003981590270996094
ell 352, elapsed: 0.00036597251892089844
ell 351, elapsed: 0.00036406517028808594
ell 350, elapsed: 0.00036716461181640625
ell 349, elapsed: 0.0003609657287597656
ell 348, elapsed: 0.0003540515899658203
ell 347, elapsed: 0.0003609657287597656
ell 346, elapsed: 0.00034809112548828125
ell 345, elapsed: 0.0003600120544433594
ell 344, elapsed: 0.00045418739318847656
ell 343, elapsed: 0.00035881996154785156
ell 342, elapsed: 0.00035190582275390625
ell 341, elapsed: 0.0003650188446044922
ell 340, elapsed: 0.0003459453582763672
ell 339, elapsed: 0.00036787986755371094
ell 338, elapsed: 0.00036597251892089844
ell 337, elapsed: 0.0003650188446044922
ell 336, elapsed: 0.0003609657287597656
ell 335, elapsed: 0.00037097930908203125
ell 334, elapsed: 0.0003838539123535156
ell 333, elapsed: 0.00037217140197753906
ell 332, elapsed: 0.0003590583801269531
ell 331, elapsed: 0.0003619194030761719
ell 330, elapsed: 0.0003609657287597656
ell 329, elapsed: 0.0003609657287597656
ell 328, elapsed: 0.00036787986755371094
ell 327, elapsed: 0.0003688335418701172
ell 326, elapsed: 0.0003619194030761719
ell 325, elapsed: 0.00036787986755371094
ell 324, elapsed: 0.0003631114959716797
ell 323, elapsed: 0.0003662109375
ell 322, elapsed: 0.0003650188446044922
ell 321, elapsed: 0.0003581047058105469
ell 320, elapsed: 0.0003719329833984375
ell 319, elapsed: 0.00035691261291503906
ell 318, elapsed: 0.0003719329833984375
ell 317, elapsed: 0.0003619194030761719
ell 316, elapsed: 0.00036787986755371094
ell 315, elapsed: 0.0004069805145263672
ell 314, elapsed: 0.0003669261932373047
ell 313, elapsed: 0.00037479400634765625
ell 312, elapsed: 0.000370025634765625
ell 311, elapsed: 0.00036215782165527344
ell 310, elapsed: 0.0003731250762939453
ell 309, elapsed: 0.0003581047058105469
ell 308, elapsed: 0.0003750324249267578
ell 307, elapsed: 0.0003600120544433594
ell 306, elapsed: 0.0003681182861328125
ell 305, elapsed: 0.00040602684020996094
ell 304, elapsed: 0.0003609657287597656
ell 303, elapsed: 0.0003681182861328125
ell 302, elapsed: 0.0003609657287597656
ell 301, elapsed: 0.00036907196044921875
ell 300, elapsed: 0.0003638267517089844
ell 299, elapsed: 0.0003528594970703125
ell 298, elapsed: 0.00039005279541015625
ell 297, elapsed: 0.0003612041473388672
ell 296, elapsed: 0.0004100799560546875
ell 295, elapsed: 0.00036215782165527344
ell 294, elapsed: 0.00037217140197753906
ell 293, elapsed: 0.0003771781921386719
ell 292, elapsed: 0.0003619194030761719
ell 291, elapsed: 0.000370025634765625
ell 290, elapsed: 0.0003612041473388672
ell 289, elapsed: 0.0003609657287597656
ell 288, elapsed: 0.0003638267517089844
ell 287, elapsed: 0.0003609657287597656
ell 286, elapsed: 0.004466056823730469
ell 285, elapsed: 0.00035691261291503906
ell 284, elapsed: 0.0003650188446044922
ell 283, elapsed: 0.00036907196044921875
ell 282, elapsed: 0.0003609657287597656
ell 281, elapsed: 0.0003638267517089844
ell 280, elapsed: 0.0003528594970703125
ell 279, elapsed: 0.00037288665771484375
ell 278, elapsed: 0.0003650188446044922
ell 277, elapsed: 0.0004000663757324219
ell 276, elapsed: 0.0003669261932373047
ell 275, elapsed: 0.00036716461181640625
ell 274, elapsed: 0.0003619194030761719
ell 273, elapsed: 0.0003619194030761719
ell 272, elapsed: 0.0003750324249267578
ell 271, elapsed: 0.0003781318664550781
ell 270, elapsed: 0.0003631114959716797
ell 269, elapsed: 0.0003490447998046875
ell 268, elapsed: 0.0003631114959716797
ell 267, elapsed: 0.007929086685180664
ell 266, elapsed: 0.0003960132598876953
ell 265, elapsed: 0.0003669261932373047
ell 264, elapsed: 0.00037407875061035156
ell 263, elapsed: 0.0003581047058105469
ell 262, elapsed: 0.00036406517028808594
ell 261, elapsed: 0.00037097930908203125
ell 260, elapsed: 0.0003750324249267578
ell 259, elapsed: 0.00037384033203125
ell 258, elapsed: 0.00037097930908203125
ell 257, elapsed: 0.0003910064697265625
ell 256, elapsed: 0.0003781318664550781
ell 255, elapsed: 0.00036597251892089844
ell 254, elapsed: 0.000370025634765625
ell 253, elapsed: 0.0003590583801269531
ell 252, elapsed: 0.0003788471221923828
ell 251, elapsed: 0.00036597251892089844
ell 250, elapsed: 0.0003781318664550781
ell 249, elapsed: 0.0003829002380371094
ell 248, elapsed: 0.00041484832763671875
ell 247, elapsed: 0.0003578662872314453
ell 246, elapsed: 0.00036907196044921875
ell 245, elapsed: 0.000370025634765625
ell 244, elapsed: 0.00038504600524902344
ell 243, elapsed: 0.0003788471221923828
ell 242, elapsed: 0.0003809928894042969
ell 241, elapsed: 0.0003688335418701172
ell 240, elapsed: 0.0003638267517089844
ell 239, elapsed: 0.00037097930908203125
ell 238, elapsed: 0.0003788471221923828
ell 237, elapsed: 0.00036597251892089844
ell 236, elapsed: 0.00037288665771484375
ell 235, elapsed: 0.00036597251892089844
ell 234, elapsed: 0.0003790855407714844
ell 233, elapsed: 0.00036907196044921875
ell 232, elapsed: 0.0003838539123535156
ell 231, elapsed: 0.000370025634765625
ell 230, elapsed: 0.00036907196044921875
ell 229, elapsed: 0.00039696693420410156
ell 228, elapsed: 0.0003731250762939453
ell 227, elapsed: 0.0003750324249267578
ell 226, elapsed: 0.0003638267517089844
ell 225, elapsed: 0.0003619194030761719
ell 224, elapsed: 0.00036907196044921875
ell 223, elapsed: 0.0003719329833984375
ell 222, elapsed: 0.0003719329833984375
ell 221, elapsed: 0.00034809112548828125
ell 220, elapsed: 0.00037384033203125
ell 219, elapsed: 0.0004169940948486328
ell 218, elapsed: 0.000370025634765625
ell 217, elapsed: 0.0003762245178222656
ell 216, elapsed: 0.0003669261932373047
ell 215, elapsed: 0.00036907196044921875
ell 214, elapsed: 0.0005431175231933594
ell 213, elapsed: 0.00036406517028808594
ell 212, elapsed: 0.00048279762268066406
ell 211, elapsed: 0.000331878662109375
ell 210, elapsed: 0.0003631114959716797
ell 209, elapsed: 0.0003609657287597656
ell 208, elapsed: 0.00035309791564941406
ell 207, elapsed: 0.0003650188446044922
ell 206, elapsed: 0.00035691261291503906
ell 205, elapsed: 0.0003609657287597656
ell 204, elapsed: 0.0003600120544433594
ell 203, elapsed: 0.0003669261932373047
ell 202, elapsed: 0.00036716461181640625
ell 201, elapsed: 0.00041604042053222656
ell 200, elapsed: 0.00037288665771484375
ell 199, elapsed: 0.0003631114959716797
ell 198, elapsed: 0.00037097930908203125
ell 197, elapsed: 0.0003650188446044922
ell 196, elapsed: 0.0003609657287597656
ell 195, elapsed: 0.000370025634765625
ell 194, elapsed: 0.00035309791564941406
ell 193, elapsed: 0.00039005279541015625
ell 192, elapsed: 0.0003719329833984375
ell 191, elapsed: 0.0003941059112548828
ell 190, elapsed: 0.0003731250762939453
ell 189, elapsed: 0.0003528594970703125
ell 188, elapsed: 0.00037384033203125
ell 187, elapsed: 0.00035691261291503906
ell 186, elapsed: 0.00037384033203125
ell 185, elapsed: 0.00036597251892089844
ell 184, elapsed: 0.000370025634765625
ell 183, elapsed: 0.00036907196044921875
ell 182, elapsed: 0.0003879070281982422
ell 181, elapsed: 0.00036215782165527344
ell 180, elapsed: 0.00037789344787597656
ell 179, elapsed: 0.0003581047058105469
ell 178, elapsed: 0.00037288665771484375
ell 177, elapsed: 0.00037288665771484375
ell 176, elapsed: 0.0003719329833984375
ell 175, elapsed: 0.00037097930908203125
ell 174, elapsed: 0.0003731250762939453
ell 173, elapsed: 0.00032591819763183594
ell 172, elapsed: 0.0003261566162109375
ell 171, elapsed: 0.0002899169921875
ell 170, elapsed: 0.00029015541076660156
ell 169, elapsed: 0.0002830028533935547
ell 168, elapsed: 0.0002911090850830078
ell 167, elapsed: 0.0002830028533935547
ell 166, elapsed: 0.00028395652770996094
ell 165, elapsed: 0.00029015541076660156
ell 164, elapsed: 0.0002868175506591797
ell 163, elapsed: 0.0002868175506591797
ell 162, elapsed: 0.00028514862060546875
ell 161, elapsed: 0.0002899169921875
ell 160, elapsed: 0.0002830028533935547
ell 159, elapsed: 0.0003981590270996094
ell 158, elapsed: 0.0003750324249267578
ell 157, elapsed: 0.0003681182861328125
ell 156, elapsed: 0.0003771781921386719
ell 155, elapsed: 0.000370025634765625
ell 154, elapsed: 0.00036406517028808594
ell 153, elapsed: 0.00035500526428222656
ell 152, elapsed: 0.0003421306610107422
ell 151, elapsed: 0.0003750324249267578
ell 150, elapsed: 0.0004889965057373047
ell 149, elapsed: 0.0003731250762939453
ell 148, elapsed: 0.00040793418884277344
ell 147, elapsed: 0.0003578662872314453
ell 146, elapsed: 0.0003612041473388672
ell 145, elapsed: 0.0003600120544433594
ell 144, elapsed: 0.0003559589385986328
ell 143, elapsed: 0.00036597251892089844
ell 142, elapsed: 0.0003490447998046875
ell 141, elapsed: 0.0003647804260253906
ell 140, elapsed: 0.0003809928894042969
ell 139, elapsed: 0.00035309791564941406
ell 138, elapsed: 0.0003619194030761719
ell 137, elapsed: 0.0003540515899658203
ell 136, elapsed: 0.00036597251892089844
ell 135, elapsed: 0.0003540515899658203
ell 134, elapsed: 0.00035381317138671875
ell 133, elapsed: 0.0003650188446044922
ell 132, elapsed: 0.00035309791564941406
ell 131, elapsed: 0.0003609657287597656
ell 130, elapsed: 0.0003859996795654297
ell 129, elapsed: 0.00036406517028808594
ell 128, elapsed: 0.0003561973571777344
ell 127, elapsed: 0.0003600120544433594
ell 126, elapsed: 0.0003650188446044922
ell 125, elapsed: 0.00035500526428222656
ell 124, elapsed: 0.000370025634765625
ell 123, elapsed: 0.0003509521484375
ell 122, elapsed: 0.0003571510314941406
ell 121, elapsed: 0.0004048347473144531
ell 120, elapsed: 0.00035691261291503906
ell 119, elapsed: 0.0003399848937988281
ell 118, elapsed: 0.0003571510314941406
ell 117, elapsed: 0.0003528594970703125
ell 116, elapsed: 0.00037407875061035156
ell 115, elapsed: 0.0003540515899658203
ell 114, elapsed: 0.00036907196044921875
ell 113, elapsed: 0.00035500526428222656
ell 112, elapsed: 0.00035500526428222656
ell 111, elapsed: 0.000392913818359375
ell 110, elapsed: 0.0003578662872314453
ell 109, elapsed: 0.0003581047058105469
ell 108, elapsed: 0.00036787986755371094
ell 107, elapsed: 0.0003600120544433594
ell 106, elapsed: 0.0003719329833984375
ell 105, elapsed: 0.0003590583801269531
ell 104, elapsed: 0.00037097930908203125
ell 103, elapsed: 0.0003600120544433594
ell 102, elapsed: 0.0003559589385986328
ell 101, elapsed: 0.0003809928894042969
ell 100, elapsed: 0.00033402442932128906
ell 99, elapsed: 0.0003662109375
ell 98, elapsed: 0.0003650188446044922
ell 97, elapsed: 0.00037598609924316406
ell 96, elapsed: 0.0003631114959716797
ell 95, elapsed: 0.0003590583801269531
ell 94, elapsed: 0.00036597251892089844
ell 93, elapsed: 0.0003609657287597656
ell 92, elapsed: 0.00037479400634765625
ell 91, elapsed: 0.0003368854522705078
ell 90, elapsed: 0.0009119510650634766
ell 89, elapsed: 0.00035190582275390625
ell 88, elapsed: 0.00035309791564941406
ell 87, elapsed: 0.0003681182861328125
ell 86, elapsed: 0.00036406517028808594
ell 85, elapsed: 0.00036406517028808594
ell 84, elapsed: 0.0003719329833984375
ell 83, elapsed: 0.00039005279541015625
ell 82, elapsed: 0.00036787986755371094
ell 81, elapsed: 0.00034880638122558594
ell 80, elapsed: 0.00035881996154785156
ell 79, elapsed: 0.000370025634765625
ell 78, elapsed: 0.0003612041473388672
ell 77, elapsed: 0.0003731250762939453
ell 76, elapsed: 0.0003681182861328125
ell 75, elapsed: 0.0003619194030761719
ell 74, elapsed: 0.0004169940948486328
ell 73, elapsed: 0.00036716461181640625
ell 72, elapsed: 0.000370025634765625
ell 71, elapsed: 0.00036907196044921875
ell 70, elapsed: 0.00036716461181640625
ell 69, elapsed: 0.0003750324249267578
ell 68, elapsed: 0.0003669261932373047
ell 67, elapsed: 0.0003647804260253906
ell 66, elapsed: 0.0003650188446044922
ell 65, elapsed: 0.00037288665771484375
ell 64, elapsed: 0.0003910064697265625
ell 63, elapsed: 0.0003609657287597656
ell 62, elapsed: 0.000370025634765625
ell 61, elapsed: 0.0003638267517089844
ell 60, elapsed: 0.0003688335418701172
ell 59, elapsed: 0.00036597251892089844
ell 58, elapsed: 0.00036406517028808594
ell 57, elapsed: 0.0003769397735595703
ell 56, elapsed: 0.0003650188446044922
ell 55, elapsed: 0.0003941059112548828
ell 54, elapsed: 0.00036787986755371094
ell 53, elapsed: 0.0003609657287597656
ell 52, elapsed: 0.00037789344787597656
ell 51, elapsed: 0.00035881996154785156
ell 50, elapsed: 0.00037598609924316406
ell 49, elapsed: 0.0003650188446044922
ell 48, elapsed: 0.0003609657287597656
ell 47, elapsed: 0.00037097930908203125
ell 46, elapsed: 0.0003612041473388672
ell 45, elapsed: 0.0003998279571533203
ell 44, elapsed: 0.00036597251892089844
ell 43, elapsed: 0.0003590583801269531
ell 42, elapsed: 0.00037407875061035156
ell 41, elapsed: 0.0003581047058105469
ell 40, elapsed: 0.0003650188446044922
ell 39, elapsed: 0.0003578662872314453
ell 38, elapsed: 0.0003688335418701172
ell 37, elapsed: 0.00036907196044921875
ell 36, elapsed: 0.0003650188446044922
ell 35, elapsed: 0.0004010200500488281
ell 34, elapsed: 0.0003662109375
ell 33, elapsed: 0.0003681182861328125
ell 32, elapsed: 0.00036406517028808594
ell 31, elapsed: 0.00037097930908203125
ell 30, elapsed: 0.0003750324249267578
ell 29, elapsed: 0.00036406517028808594
ell 28, elapsed: 0.00037097930908203125
ell 27, elapsed: 0.00036406517028808594
ell 26, elapsed: 0.0004029273986816406
ell 25, elapsed: 0.0003719329833984375
ell 24, elapsed: 0.0003600120544433594
ell 23, elapsed: 0.0003540515899658203
ell 22, elapsed: 0.0003638267517089844
ell 21, elapsed: 0.0003719329833984375
ell 20, elapsed: 0.00036597251892089844
ell 19, elapsed: 0.00036597251892089844
ell 18, elapsed: 0.0003719329833984375
ell 17, elapsed: 0.0003631114959716797
ell 16, elapsed: 0.0003871917724609375
ell 15, elapsed: 0.0003750324249267578
ell 14, elapsed: 0.0003638267517089844
ell 13, elapsed: 0.0003769397735595703
ell 12, elapsed: 0.0003581047058105469
ell 11, elapsed: 0.0003750324249267578
ell 10, elapsed: 0.00036406517028808594
ell 9, elapsed: 0.0003421306610107422
ell 8, elapsed: 0.0003769397735595703
ell 7, elapsed: 0.0003719329833984375
ell 6, elapsed: 0.00041794776916503906
ell 5, elapsed: 0.0003628730773925781
ell 4, elapsed: 0.0003650188446044922
ell 3, elapsed: 0.0003731250762939453
ell 2, elapsed: 0.00036406517028808594
ell 1, elapsed: 0.00037288665771484375
ell 0, elapsed: 0.000370025634765625
  0.571769 seconds (46.03 k allocations: 3.091 MiB, 8.17% compilation time)
elapsed: 0.0005729198455810547
step:          0.052997 sec (0 allocations: 0 byte, 0.0% gc time)
swapping:      0.000635 sec (0 allocations: 0 byte, 0.0% gc time)
calc_Mellell!: 0.006219 sec (0 allocations: 0 byte, 0.0% gc time)
  t0 :  0.001753 sec (0 allocations: 0 byte, 0.0% gc time)
  tm2 : 0.088049 sec (0 allocations: 0 byte, 0.0% gc time)
  tm2s: 0.001045 sec (0 allocations: 0 byte, 0.0% gc time)
  tm4 : 0.207171 sec (0 allocations: 0 byte, 0.0% gc time)
  tp2 : 0.0 sec (0 allocations: 0 byte, 0.0% gc time)
  tp2s: 0.0 sec (0 allocations: 0 byte, 0.0% gc time)
  tp4 : 0.0 sec (0 allocations: 0 byte, 0.0% gc time)
calc_wtdll!:   0.348814 sec (9.9 k allocations: 1.047 MB, 0.0% gc time)
calc_wljj!:    0.025359 sec (689 allocations: 10.766 KB, 0.0% gc time)
mult_prefac!:  0.0 sec (0 allocations: 0 byte, 0.0% gc time)
convert:       0.0 sec (0 allocations: 0 byte, 0.0% gc time)
write:         0.052878 sec (0 allocations: 0 byte, 0.0% gc time)
test_rand_2f1: 0.0 sec (0 allocations: 0 byte, 0.0% gc time)
Closing outfile out/Ml21-cache.bin...   0.000014 seconds
  0.000458 seconds (36 allocations: 27.953 KiB)
make_phi():   0.003378 seconds (8.18 k allocations: 237.844 KiB)
  0.146612 seconds (141.90 k allocations: 3.483 MiB)
tskip:       0.000735 sec (0 allocations: 0 byte, 0.0% gc time)
tread:       0.025546 sec (17 allocations: 10.641 KB, 0.0% gc time)
tmultphi:    0.008966 sec (0 allocations: 0 byte, 0.0% gc time)
tbrfft:      0.04219 sec (0 allocations: 0 byte, 0.0% gc time)
tmultprefac: 0.014852 sec (0 allocations: 0 byte, 0.0% gc time)
toutfunc:    0.048986 sec (127.507 k allocations: 2.312 MB, 0.0% gc time)
Testing R=1.0 ... passed
Calculating fmax: 
  dlrec    = 4
  dlrecRg1 = -4
  q=1.1, R=0.9:	  0.280027 seconds (105.72 k allocations: 15.273 MiB, 6.16% gc time)

  0.280198 seconds (105.78 k allocations: 15.307 MiB, 6.16% gc time)
ℓ = 1202
Δℓ = 4
ΔℓRg1 = -4
N = 1600
q = 1.1
kmin = 1.0e-5
kmax = 100000.00000000004
χ0 = 0.023029999999999995
RR = RR.tsv
ℓmax = ℓmax.bin
f21 = f21.bin
kmin = 1.0e-5
kmax = 100000.0
dlrec    = 4
dlrecRg1 = -4
Output size: 5741568 bytes = 0.005347251892089844 GiB
Output size: 51264 bytes = 4.774332046508789e-5 GiB
Reading 'out/F21EllCache'...   0.001855 seconds (197 allocations: 84.203 KiB)
ellmax: 1202
lmaxcache: 1202
fell[:,1,1] = ComplexF64[1.3482014726274674e-57 - 3.302141236118086e-73im, 1.357860004724329e-57 - 3.3257978169518355e-73im]
ell 1202, elapsed: 2.5987625122070312e-5
ell 1201, elapsed: 0.0002849102020263672
ell 1200, elapsed: 0.0002930164337158203
ell 1199, elapsed: 0.0002579689025878906
ell 1198, elapsed: 0.0002579689025878906
ell 1002, elapsed: 0.00816202163696289
ell 1001, elapsed: 0.00043201446533203125
ell 1000, elapsed: 0.00025200843811035156
ell 999, elapsed: 0.00025391578674316406
ell 998, elapsed: 0.00025200843811035156
ell 902, elapsed: 0.004051923751831055
ell 901, elapsed: 0.00026106834411621094
ell 900, elapsed: 0.0002560615539550781
ell 899, elapsed: 0.00025582313537597656
ell 898, elapsed: 0.0002570152282714844
ell 802, elapsed: 0.004107952117919922
ell 801, elapsed: 0.00026416778564453125
ell 800, elapsed: 0.0002930164337158203
ell 799, elapsed: 0.0002589225769042969
ell 798, elapsed: 0.00026106834411621094
ell 702, elapsed: 0.004079103469848633
ell 701, elapsed: 0.0002601146697998047
ell 700, elapsed: 0.0002598762512207031
ell 699, elapsed: 0.0002579689025878906
ell 698, elapsed: 0.0002589225769042969
ell 602, elapsed: 0.004248142242431641
ell 601, elapsed: 0.0002639293670654297
ell 600, elapsed: 0.0002589225769042969
ell 599, elapsed: 0.0002601146697998047
ell 598, elapsed: 0.0002639293670654297
ell 502, elapsed: 0.004086971282958984
ell 501, elapsed: 0.0002620220184326172
ell 500, elapsed: 0.0002579689025878906
ell 499, elapsed: 0.000270843505859375
ell 498, elapsed: 0.0002589225769042969
ell 402, elapsed: 0.0040929317474365234
ell 401, elapsed: 0.0002620220184326172
ell 400, elapsed: 0.0002579689025878906
ell 399, elapsed: 0.0002589225769042969
ell 398, elapsed: 0.0002589225769042969
ell 302, elapsed: 0.004071950912475586
ell 301, elapsed: 0.0002620220184326172
ell 300, elapsed: 0.0002601146697998047
ell 299, elapsed: 0.0002579689025878906
ell 298, elapsed: 0.0002579689025878906
ell 202, elapsed: 0.004137992858886719
ell 201, elapsed: 0.0002620220184326172
ell 200, elapsed: 0.0002570152282714844
ell 199, elapsed: 0.0002598762512207031
ell 198, elapsed: 0.0002830028533935547
ell 152, elapsed: 0.002084970474243164
ell 151, elapsed: 0.0002560615539550781
ell 150, elapsed: 0.0002560615539550781
ell 149, elapsed: 0.00025391578674316406
ell 148, elapsed: 0.0002560615539550781
ell 127, elapsed: 0.0011229515075683594
ell 126, elapsed: 0.0002570152282714844
ell 125, elapsed: 0.00025916099548339844
ell 124, elapsed: 0.0002548694610595703
ell 123, elapsed: 0.0002560615539550781
ell 114, elapsed: 0.0006270408630371094
ell 113, elapsed: 0.0002560615539550781
ell 112, elapsed: 0.0002570152282714844
ell 111, elapsed: 0.0002570152282714844
ell 110, elapsed: 0.0002560615539550781
ell 102, elapsed: 0.0005710124969482422
ell 101, elapsed: 0.0002970695495605469
ell 100, elapsed: 0.00025200843811035156
ell 99, elapsed: 0.0002529621124267578
ell 98, elapsed: 0.00025200843811035156
ell 97, elapsed: 0.000308990478515625
ell 96, elapsed: 0.00029206275939941406
ell 95, elapsed: 0.00030517578125
ell 94, elapsed: 0.0002949237823486328
ell 93, elapsed: 0.0002930164337158203
ell 92, elapsed: 0.00030303001403808594
ell 91, elapsed: 0.00028705596923828125
ell 90, elapsed: 0.0002980232238769531
ell 89, elapsed: 0.00028896331787109375
ell 88, elapsed: 0.00032711029052734375
ell 87, elapsed: 0.0002899169921875
ell 86, elapsed: 0.0002949237823486328
ell 85, elapsed: 0.00030112266540527344
ell 84, elapsed: 0.0002899169921875
ell 83, elapsed: 0.0002970695495605469
ell 82, elapsed: 0.0002899169921875
ell 81, elapsed: 0.0002899169921875
ell 80, elapsed: 0.0002999305725097656
ell 79, elapsed: 0.00029015541076660156
ell 78, elapsed: 0.0002951622009277344
ell 77, elapsed: 0.0002880096435546875
ell 76, elapsed: 0.00029206275939941406
ell 75, elapsed: 0.003573894500732422
ell 74, elapsed: 0.0003020763397216797
ell 73, elapsed: 0.0003211498260498047
ell 72, elapsed: 0.0002930164337158203
ell 71, elapsed: 0.0002880096435546875
ell 70, elapsed: 0.0003020763397216797
ell 69, elapsed: 0.00028705596923828125
ell 68, elapsed: 0.0002949237823486328
ell 67, elapsed: 0.00028586387634277344
ell 66, elapsed: 0.00028896331787109375
ell 65, elapsed: 0.00029015541076660156
ell 64, elapsed: 0.00028777122497558594
ell 63, elapsed: 0.00029397010803222656
ell 62, elapsed: 0.0002880096435546875
ell 61, elapsed: 0.00028705596923828125
ell 60, elapsed: 0.0003209114074707031
ell 59, elapsed: 0.0002930164337158203
ell 58, elapsed: 0.00029397010803222656
ell 57, elapsed: 0.00028705596923828125
ell 56, elapsed: 0.00028896331787109375
ell 55, elapsed: 0.00029587745666503906
ell 54, elapsed: 0.0002880096435546875
ell 53, elapsed: 0.0002930164337158203
ell 52, elapsed: 0.0002849102020263672
ell 51, elapsed: 0.0002880096435546875
ell 50, elapsed: 0.0002949237823486328
ell 49, elapsed: 0.0002899169921875
ell 48, elapsed: 0.00029397010803222656
ell 47, elapsed: 0.000347137451171875
ell 46, elapsed: 0.00028896331787109375
ell 45, elapsed: 0.00029587745666503906
ell 44, elapsed: 0.0002911090850830078
ell 43, elapsed: 0.00029397010803222656
ell 42, elapsed: 0.000286102294921875
ell 41, elapsed: 0.0002880096435546875
ell 40, elapsed: 0.0002930164337158203
ell 39, elapsed: 0.00029015541076660156
ell 38, elapsed: 0.0002968311309814453
ell 37, elapsed: 0.0002899169921875
ell 36, elapsed: 0.00028896331787109375
ell 35, elapsed: 0.00029397010803222656
ell 34, elapsed: 0.00031113624572753906
ell 33, elapsed: 0.0002970695495605469
ell 32, elapsed: 0.0002880096435546875
ell 31, elapsed: 0.0002930164337158203
ell 30, elapsed: 0.0002868175506591797
ell 29, elapsed: 0.0002892017364501953
ell 28, elapsed: 0.00029397010803222656
ell 27, elapsed: 0.0002849102020263672
ell 26, elapsed: 0.00029015541076660156
ell 25, elapsed: 0.00028586387634277344
ell 24, elapsed: 0.00028395652770996094
ell 23, elapsed: 0.0002880096435546875
ell 22, elapsed: 0.00028395652770996094
ell 21, elapsed: 0.0003540515899658203
ell 20, elapsed: 0.000286102294921875
ell 19, elapsed: 0.0002830028533935547
ell 18, elapsed: 0.0002930164337158203
ell 17, elapsed: 0.0002868175506591797
ell 16, elapsed: 0.0002930164337158203
ell 15, elapsed: 0.00029206275939941406
ell 14, elapsed: 0.0002880096435546875
ell 13, elapsed: 0.0002930164337158203
ell 12, elapsed: 0.0002918243408203125
ell 11, elapsed: 0.0003018379211425781
ell 10, elapsed: 0.0002899169921875
ell 9, elapsed: 0.00028896331787109375
ell 8, elapsed: 0.00034618377685546875
ell 7, elapsed: 0.00028896331787109375
ell 6, elapsed: 0.00029587745666503906
ell 5, elapsed: 0.0002880096435546875
ell 4, elapsed: 0.0002880096435546875
ell 3, elapsed: 0.0002961158752441406
ell 2, elapsed: 0.0002980232238769531
ell 1, elapsed: 0.00029587745666503906
ell 0, elapsed: 0.00029087066650390625
  0.095463 seconds (11.51 k allocations: 719.594 KiB)
elapsed: 0.0003390312194824219
step:          0.046644 sec (0 allocations: 0 byte, 0.0% gc time)
swapping:      0.000304 sec (0 allocations: 0 byte, 0.0% gc time)
calc_Mellell!: 0.000836 sec (0 allocations: 0 byte, 0.0% gc time)
  t0 :  0.000242 sec (0 allocations: 0 byte, 0.0% gc time)
  tm2 : 0.012834 sec (0 allocations: 0 byte, 0.0% gc time)
  tm2s: 0.000166 sec (0 allocations: 0 byte, 0.0% gc time)
  tm4 : 0.02367 sec (0 allocations: 0 byte, 0.0% gc time)
  tp2 : 0.0 sec (0 allocations: 0 byte, 0.0% gc time)
  tp2s: 0.0 sec (0 allocations: 0 byte, 0.0% gc time)
  tp4 : 0.0 sec (0 allocations: 0 byte, 0.0% gc time)
calc_wtdll!:   0.037246 sec (1.344 k allocations: 147.0 KB, 0.0% gc time)
calc_wljj!:    0.002158 sec (6 allocations: 96 byte, 0.0% gc time)
mult_prefac!:  0.0 sec (0 allocations: 0 byte, 0.0% gc time)
convert:       0.0 sec (0 allocations: 0 byte, 0.0% gc time)
write:         0.002628 sec (0 allocations: 0 byte, 0.0% gc time)
test_rand_2f1: 0.0 sec (0 allocations: 0 byte, 0.0% gc time)
Closing outfile out/Ml21-cache.bin...   0.000011 seconds
  0.000264 seconds (36 allocations: 27.953 KiB)
make_phi():   0.001485 seconds (8.18 k allocations: 237.844 KiB)
  0.011872 seconds (11.65 k allocations: 308.688 KiB)
tskip:       1.4e-5 sec (0 allocations: 0 byte, 0.0% gc time)
tread:       0.001924 sec (17 allocations: 2.125 KB, 0.0% gc time)
tmultphi:    0.000938 sec (0 allocations: 0 byte, 0.0% gc time)
tbrfft:      0.003716 sec (0 allocations: 0 byte, 0.0% gc time)
tmultprefac: 0.001603 sec (0 allocations: 0 byte, 0.0% gc time)
toutfunc:    0.003466 sec (10.304 k allocations: 196.0 KB, 0.0% gc time)
Testing R=0.9 ... passed
Calculating fmax: 
  dlrec    = 4
  dlrecRg1 = -4
  q=1.1, R=0.8:	  0.187583 seconds (103.21 k allocations: 14.840 MiB)

  0.187707 seconds (103.25 k allocations: 14.874 MiB)
ℓ = 1202
Δℓ = 4
ΔℓRg1 = -4
N = 1600
q = 1.1
kmin = 1.0e-5
kmax = 100000.00000000004
χ0 = 0.023029999999999995
RR = RR.tsv
ℓmax = ℓmax.bin
f21 = f21.bin
kmin = 1.0e-5
kmax = 100000.0
dlrec    = 4
dlrecRg1 = -4
Output size: 5741568 bytes = 0.005347251892089844 GiB
Output size: 51264 bytes = 4.774332046508789e-5 GiB
Reading 'out/F21EllCache'...   0.000758 seconds (197 allocations: 84.203 KiB)
ellmax: 1202
lmaxcache: 1202
fell[:,1,1] = ComplexF64[7.519068145690986e-120 - 1.8416405474382574e-135im, 7.541664537386155e-120 - 1.847175067190611e-135im]
ell 1202, elapsed: 1.9073486328125e-5
ell 1201, elapsed: 0.000308990478515625
ell 1200, elapsed: 0.00028014183044433594
ell 1199, elapsed: 0.0002810955047607422
ell 1198, elapsed: 0.0002789497375488281
ell 1002, elapsed: 0.012148141860961914
ell 1001, elapsed: 0.000270843505859375
ell 1000, elapsed: 0.0002601146697998047
ell 999, elapsed: 0.0002570152282714844
ell 998, elapsed: 0.0002589225769042969
ell 902, elapsed: 0.004031181335449219
ell 901, elapsed: 0.0002529621124267578
ell 900, elapsed: 0.0002541542053222656
ell 899, elapsed: 0.0002529621124267578
ell 898, elapsed: 0.0002541542053222656
ell 802, elapsed: 0.004048824310302734
ell 801, elapsed: 0.00034809112548828125
ell 800, elapsed: 0.0002532005310058594
ell 799, elapsed: 0.0002529621124267578
ell 798, elapsed: 0.0002570152282714844
ell 702, elapsed: 0.006670951843261719
ell 701, elapsed: 0.00028705596923828125
ell 700, elapsed: 0.0002410411834716797
ell 699, elapsed: 0.00024080276489257812
ell 698, elapsed: 0.0002551078796386719
ell 602, elapsed: 0.003952980041503906
ell 601, elapsed: 0.00024700164794921875
ell 600, elapsed: 0.00024700164794921875
ell 599, elapsed: 0.0002448558807373047
ell 598, elapsed: 0.0002460479736328125
ell 502, elapsed: 0.00397491455078125
ell 501, elapsed: 0.0002510547637939453
ell 500, elapsed: 0.0002510547637939453
ell 499, elapsed: 0.0002498626708984375
ell 498, elapsed: 0.0002541542053222656
ell 402, elapsed: 0.004055023193359375
ell 401, elapsed: 0.00025391578674316406
ell 400, elapsed: 0.00025391578674316406
ell 399, elapsed: 0.00024890899658203125
ell 398, elapsed: 0.0002989768981933594
ell 302, elapsed: 0.00400090217590332
ell 301, elapsed: 0.00025010108947753906
ell 300, elapsed: 0.0002510547637939453
ell 299, elapsed: 0.000247955322265625
ell 298, elapsed: 0.000247955322265625
ell 202, elapsed: 0.004106044769287109
ell 201, elapsed: 0.00025200843811035156
ell 200, elapsed: 0.0002551078796386719
ell 199, elapsed: 0.0002510547637939453
ell 198, elapsed: 0.0002510547637939453
ell 152, elapsed: 0.0020928382873535156
ell 151, elapsed: 0.00024819374084472656
ell 150, elapsed: 0.00025200843811035156
ell 149, elapsed: 0.00024890899658203125
ell 148, elapsed: 0.0002491474151611328
ell 127, elapsed: 0.0010981559753417969
ell 126, elapsed: 0.0002491474151611328
ell 125, elapsed: 0.0002510547637939453
ell 124, elapsed: 0.0002510547637939453
ell 123, elapsed: 0.00024890899658203125
ell 114, elapsed: 0.0006399154663085938
ell 113, elapsed: 0.00025010108947753906
ell 112, elapsed: 0.0002491474151611328
ell 111, elapsed: 0.0002498626708984375
ell 110, elapsed: 0.000247955322265625
ell 102, elapsed: 0.0005700588226318359
ell 101, elapsed: 0.00024390220642089844
ell 100, elapsed: 0.00024700164794921875
ell 99, elapsed: 0.000244140625
ell 98, elapsed: 0.0002460479736328125
ell 97, elapsed: 0.00028014183044433594
ell 96, elapsed: 0.0002810955047607422
ell 95, elapsed: 0.0003199577331542969
ell 94, elapsed: 0.0002849102020263672
ell 93, elapsed: 0.00028896331787109375
ell 92, elapsed: 0.00028014183044433594
ell 91, elapsed: 0.0002830028533935547
ell 90, elapsed: 0.0002789497375488281
ell 89, elapsed: 0.00028014183044433594
ell 88, elapsed: 0.0002808570861816406
ell 87, elapsed: 0.0002751350402832031
ell 86, elapsed: 0.0002810955047607422
ell 85, elapsed: 0.0002739429473876953
ell 84, elapsed: 0.0002770423889160156
ell 83, elapsed: 0.0002779960632324219
ell 82, elapsed: 0.0002760887145996094
ell 81, elapsed: 0.000308990478515625
ell 80, elapsed: 0.0002799034118652344
ell 79, elapsed: 0.0002770423889160156
ell 78, elapsed: 0.00028514862060546875
ell 77, elapsed: 0.0002770423889160156
ell 76, elapsed: 0.00028395652770996094
ell 75, elapsed: 0.0002770423889160156
ell 74, elapsed: 0.0002830028533935547
ell 73, elapsed: 0.0002779960632324219
ell 72, elapsed: 0.0002789497375488281
ell 71, elapsed: 0.00028514862060546875
ell 70, elapsed: 0.0002758502960205078
ell 69, elapsed: 0.000286102294921875
ell 68, elapsed: 0.0003211498260498047
ell 67, elapsed: 0.00027680397033691406
ell 66, elapsed: 0.0002791881561279297
ell 65, elapsed: 0.0002720355987548828
ell 64, elapsed: 0.00028705596923828125
ell 63, elapsed: 0.0002758502960205078
ell 62, elapsed: 0.0002751350402832031
ell 61, elapsed: 0.00028014183044433594
ell 60, elapsed: 0.00027680397033691406
ell 59, elapsed: 0.0002789497375488281
ell 58, elapsed: 0.0002770423889160156
ell 57, elapsed: 0.00027680397033691406
ell 56, elapsed: 0.0002789497375488281
[...]
ell 782, elapsed: 0.0009589195251464844
ell 781, elapsed: 0.0005459785461425781
ell 780, elapsed: 0.0005478858947753906
ell 779, elapsed: 0.0005459785461425781
ell 778, elapsed: 0.0005590915679931641
ell 772, elapsed: 0.0009338855743408203
ell 771, elapsed: 0.0005290508270263672
ell 770, elapsed: 0.0005338191986083984
ell 769, elapsed: 0.0004830360412597656
ell 768, elapsed: 0.0004661083221435547
ell 762, elapsed: 0.0008859634399414062
ell 761, elapsed: 0.0005321502685546875
ell 760, elapsed: 0.0005321502685546875
ell 759, elapsed: 0.00055694580078125
ell 758, elapsed: 0.0005681514739990234
ell 752, elapsed: 0.0009729862213134766
ell 751, elapsed: 0.0005788803100585938
ell 750, elapsed: 0.0005700588226318359
ell 749, elapsed: 0.0005660057067871094
ell 748, elapsed: 0.0005629062652587891
ell 742, elapsed: 0.001001119613647461
ell 741, elapsed: 0.0005619525909423828
ell 740, elapsed: 0.0005629062652587891
ell 739, elapsed: 0.0005540847778320312
ell 738, elapsed: 0.00047898292541503906
ell 732, elapsed: 0.0008459091186523438
ell 731, elapsed: 0.0004780292510986328
ell 730, elapsed: 0.00047397613525390625
ell 729, elapsed: 0.0004699230194091797
ell 728, elapsed: 0.0004830360412597656
ell 722, elapsed: 0.0008418560028076172
ell 721, elapsed: 0.0004661083221435547
ell 720, elapsed: 0.0004639625549316406
ell 719, elapsed: 0.0004677772521972656
ell 718, elapsed: 0.0004918575286865234
ell 712, elapsed: 0.0009279251098632812
ell 711, elapsed: 0.0005860328674316406
ell 710, elapsed: 0.00055694580078125
ell 709, elapsed: 0.0005519390106201172
ell 708, elapsed: 0.0005519390106201172
ell 702, elapsed: 0.0009760856628417969
ell 701, elapsed: 0.0005609989166259766
ell 700, elapsed: 0.0005898475646972656
ell 699, elapsed: 0.0004661083221435547
ell 698, elapsed: 0.00046706199645996094
ell 692, elapsed: 0.0007989406585693359
ell 691, elapsed: 0.0004639625549316406
ell 690, elapsed: 0.000469207763671875
ell 689, elapsed: 0.0004630088806152344
ell 688, elapsed: 0.0004677772521972656
ell 682, elapsed: 0.0008759498596191406
ell 681, elapsed: 0.00047016143798828125
ell 680, elapsed: 0.0004730224609375
ell 679, elapsed: 0.00046896934509277344
ell 678, elapsed: 0.00047206878662109375
ell 672, elapsed: 0.0008409023284912109
ell 671, elapsed: 0.0004818439483642578
ell 670, elapsed: 0.0005910396575927734
ell 669, elapsed: 0.0005600452423095703
ell 668, elapsed: 0.0005559921264648438
ell 662, elapsed: 0.000823974609375
ell 661, elapsed: 0.00046706199645996094
ell 660, elapsed: 0.00047397613525390625
ell 659, elapsed: 0.00047087669372558594
ell 658, elapsed: 0.0005819797515869141
ell 652, elapsed: 0.0009839534759521484
ell 651, elapsed: 0.0005588531494140625
ell 650, elapsed: 0.0005679130554199219
ell 649, elapsed: 0.0005621910095214844
ell 648, elapsed: 0.0006089210510253906
ell 642, elapsed: 0.0009930133819580078
ell 641, elapsed: 0.00051116943359375
ell 640, elapsed: 0.00048089027404785156
ell 639, elapsed: 0.00047707557678222656
ell 638, elapsed: 0.00048089027404785156
ell 632, elapsed: 0.0008499622344970703
ell 631, elapsed: 0.0006029605865478516
ell 630, elapsed: 0.0005638599395751953
ell 629, elapsed: 0.0005559921264648438
ell 628, elapsed: 0.0005650520324707031
ell 622, elapsed: 0.0009810924530029297
ell 621, elapsed: 0.0005581378936767578
ell 620, elapsed: 0.0005350112915039062
ell 619, elapsed: 0.0004780292510986328
ell 618, elapsed: 0.00055694580078125
ell 612, elapsed: 0.0009849071502685547
ell 611, elapsed: 0.0005631446838378906
ell 610, elapsed: 0.0005669593811035156
ell 609, elapsed: 0.008626937866210938
ell 608, elapsed: 0.0005030632019042969
ell 602, elapsed: 0.0010290145874023438
ell 601, elapsed: 0.0004830360412597656
ell 600, elapsed: 0.0004990100860595703
ell 599, elapsed: 0.0006730556488037109
ell 598, elapsed: 0.00048804283142089844
ell 592, elapsed: 0.0010170936584472656
ell 591, elapsed: 0.0004639625549316406
ell 590, elapsed: 0.0004749298095703125
ell 589, elapsed: 0.0004611015319824219
ell 588, elapsed: 0.00047206878662109375
ell 582, elapsed: 0.0008449554443359375
ell 581, elapsed: 0.0005300045013427734
ell 580, elapsed: 0.0005190372467041016
ell 579, elapsed: 0.0005218982696533203
ell 578, elapsed: 0.0005331039428710938
ell 572, elapsed: 0.0009391307830810547
ell 571, elapsed: 0.0005171298980712891
ell 570, elapsed: 0.0005810260772705078
ell 569, elapsed: 0.0005311965942382812
ell 568, elapsed: 0.0005331039428710938
ell 562, elapsed: 0.0009419918060302734
ell 561, elapsed: 0.0005190372467041016
ell 560, elapsed: 0.0005438327789306641
ell 559, elapsed: 0.0005209445953369141
ell 558, elapsed: 0.0005691051483154297
ell 552, elapsed: 0.0009489059448242188
ell 551, elapsed: 0.0005300045013427734
ell 550, elapsed: 0.0005350112915039062
ell 549, elapsed: 0.0005288124084472656
ell 548, elapsed: 0.0005259513854980469
ell 542, elapsed: 0.0009520053863525391
ell 541, elapsed: 0.0004718303680419922
ell 540, elapsed: 0.0004830360412597656
ell 539, elapsed: 0.00046896934509277344
ell 538, elapsed: 0.0004749298095703125
ell 532, elapsed: 0.0007951259613037109
ell 531, elapsed: 0.0004639625549316406
ell 530, elapsed: 0.0005788803100585938
ell 529, elapsed: 0.0005521774291992188
ell 528, elapsed: 0.000553131103515625
ell 522, elapsed: 0.0009789466857910156
ell 521, elapsed: 0.0005500316619873047
ell 520, elapsed: 0.0005598068237304688
ell 519, elapsed: 0.000518798828125
ell 518, elapsed: 0.0004799365997314453
ell 512, elapsed: 0.0007970333099365234
ell 511, elapsed: 0.0004620552062988281
ell 510, elapsed: 0.0004951953887939453
ell 509, elapsed: 0.0004949569702148438
ell 508, elapsed: 0.0005130767822265625
ell 502, elapsed: 0.0009469985961914062
ell 501, elapsed: 0.0005121231079101562
ell 500, elapsed: 0.0005340576171875
ell 499, elapsed: 0.0005090236663818359
ell 498, elapsed: 0.0005180835723876953
ell 492, elapsed: 0.000926971435546875
ell 491, elapsed: 0.0005519390106201172
ell 490, elapsed: 0.0005421638488769531
ell 489, elapsed: 0.0005218982696533203
ell 488, elapsed: 0.0005259513854980469
ell 482, elapsed: 0.0009338855743408203
ell 481, elapsed: 0.0005099773406982422
ell 480, elapsed: 0.0005838871002197266
ell 479, elapsed: 0.0004878044128417969
ell 478, elapsed: 0.0004851818084716797
ell 472, elapsed: 0.0008502006530761719
ell 471, elapsed: 0.0004699230194091797
ell 470, elapsed: 0.00047898292541503906
ell 469, elapsed: 0.0004699230194091797
ell 468, elapsed: 0.00047588348388671875
ell 462, elapsed: 0.0008990764617919922
ell 461, elapsed: 0.0004711151123046875
ell 460, elapsed: 0.000476837158203125
ell 459, elapsed: 0.0004668235778808594
ell 458, elapsed: 0.00047206878662109375
ell 452, elapsed: 0.0008521080017089844
ell 451, elapsed: 0.0005412101745605469
ell 450, elapsed: 0.0005159378051757812
ell 449, elapsed: 0.000514984130859375
ell 448, elapsed: 0.0005209445953369141
ell 442, elapsed: 0.0009148120880126953
ell 441, elapsed: 0.0005159378051757812
ell 440, elapsed: 0.0005221366882324219
ell 439, elapsed: 0.0005719661712646484
ell 438, elapsed: 0.0005309581756591797
ell 432, elapsed: 0.0009398460388183594
ell 431, elapsed: 0.0005240440368652344
ell 430, elapsed: 0.0005340576171875
ell 429, elapsed: 0.0005230903625488281
ell 428, elapsed: 0.00057220458984375
ell 422, elapsed: 0.0009582042694091797
ell 421, elapsed: 0.0005290508270263672
ell 420, elapsed: 0.00055694580078125
ell 419, elapsed: 0.0005290508270263672
ell 418, elapsed: 0.0005400180816650391
ell 412, elapsed: 0.0009958744049072266
ell 411, elapsed: 0.0005631446838378906
ell 410, elapsed: 0.0005710124969482422
ell 409, elapsed: 0.0005590915679931641
ell 408, elapsed: 0.0005660057067871094
ell 402, elapsed: 0.0009729862213134766
ell 401, elapsed: 0.0005478858947753906
ell 400, elapsed: 0.0005230903625488281
ell 399, elapsed: 0.0005159378051757812
ell 398, elapsed: 0.0005199909210205078
ell 392, elapsed: 0.0009331703186035156
ell 391, elapsed: 0.0005288124084472656
ell 390, elapsed: 0.0005259513854980469
ell 389, elapsed: 0.0005619525909423828
ell 388, elapsed: 0.0005300045013427734
ell 382, elapsed: 0.0009410381317138672
ell 381, elapsed: 0.0005218982696533203
ell 380, elapsed: 0.0005350112915039062
ell 379, elapsed: 0.0005271434783935547
ell 378, elapsed: 0.0005819797515869141
ell 372, elapsed: 0.0009479522705078125
ell 371, elapsed: 0.0005199909210205078
ell 370, elapsed: 0.0005469322204589844
ell 369, elapsed: 0.0005309581756591797
ell 368, elapsed: 0.0005340576171875
ell 362, elapsed: 0.0009539127349853516
ell 361, elapsed: 0.0005450248718261719
ell 360, elapsed: 0.0005319118499755859
ell 359, elapsed: 0.0005409717559814453
ell 358, elapsed: 0.0005428791046142578
ell 352, elapsed: 0.0009708404541015625
ell 351, elapsed: 0.0005769729614257812
ell 350, elapsed: 0.0005471706390380859
ell 349, elapsed: 0.0005340576171875
ell 348, elapsed: 0.0005459785461425781
ell 342, elapsed: 0.0009632110595703125
ell 341, elapsed: 0.0005269050598144531
ell 340, elapsed: 0.000576019287109375
ell 339, elapsed: 0.0005469322204589844
ell 338, elapsed: 0.0005440711975097656
ell 332, elapsed: 0.0009479522705078125
ell 331, elapsed: 0.0005230903625488281
ell 330, elapsed: 0.0005300045013427734
ell 329, elapsed: 0.0005109310150146484
ell 328, elapsed: 0.0005230903625488281
ell 322, elapsed: 0.0008120536804199219
ell 321, elapsed: 0.0004620552062988281
ell 320, elapsed: 0.00047588348388671875
ell 319, elapsed: 0.00045680999755859375
ell 318, elapsed: 0.00047087669372558594
ell 312, elapsed: 0.0008001327514648438
ell 311, elapsed: 0.0005650520324707031
ell 310, elapsed: 0.0004680156707763672
ell 309, elapsed: 0.00045680999755859375
ell 308, elapsed: 0.0004730224609375
ell 302, elapsed: 0.000804901123046875
ell 301, elapsed: 0.00045609474182128906
ell 300, elapsed: 0.0004608631134033203
ell 299, elapsed: 0.0005178451538085938
ell 298, elapsed: 0.0005471706390380859
ell 292, elapsed: 0.0009710788726806641
ell 291, elapsed: 0.0005538463592529297
ell 290, elapsed: 0.0005600452423095703
ell 289, elapsed: 0.0005488395690917969
ell 288, elapsed: 0.0006120204925537109
ell 282, elapsed: 0.0009388923645019531
ell 281, elapsed: 0.0005228519439697266
ell 280, elapsed: 0.0005431175231933594
ell 279, elapsed: 0.0005269050598144531
ell 278, elapsed: 0.0005340576171875
ell 272, elapsed: 0.0009911060333251953
ell 271, elapsed: 0.0005300045013427734
ell 270, elapsed: 0.0005338191986083984
ell 269, elapsed: 0.0005180835723876953
ell 268, elapsed: 0.0005400180816650391
ell 262, elapsed: 0.0009479522705078125
ell 261, elapsed: 0.0005280971527099609
ell 260, elapsed: 0.0005559921264648438
ell 259, elapsed: 0.0005190372467041016
ell 258, elapsed: 0.0005321502685546875
ell 252, elapsed: 0.0009441375732421875
ell 251, elapsed: 0.0005261898040771484
ell 250, elapsed: 0.0005440711975097656
ell 249, elapsed: 0.0005729198455810547
ell 248, elapsed: 0.0005359649658203125
ell 242, elapsed: 0.0009508132934570312
ell 241, elapsed: 0.0005300045013427734
ell 240, elapsed: 0.0005371570587158203
ell 239, elapsed: 0.0005390644073486328
ell 238, elapsed: 0.0005960464477539062
ell 232, elapsed: 0.0009491443634033203
ell 231, elapsed: 0.000537872314453125
ell 230, elapsed: 0.0005431175231933594
ell 229, elapsed: 0.0005221366882324219
ell 228, elapsed: 0.0005362033843994141
ell 222, elapsed: 0.001058816909790039
ell 221, elapsed: 0.0005309581756591797
ell 220, elapsed: 0.0005359649658203125
ell 219, elapsed: 0.0005228519439697266
ell 218, elapsed: 0.0005238056182861328
ell 212, elapsed: 0.0009360313415527344
ell 211, elapsed: 0.0005629062652587891
ell 210, elapsed: 0.0005350112915039062
ell 209, elapsed: 0.0005331039428710938
ell 208, elapsed: 0.0005388259887695312
ell 202, elapsed: 0.0009388923645019531
ell 201, elapsed: 0.0005309581756591797
ell 200, elapsed: 0.0005450248718261719
ell 199, elapsed: 0.0005550384521484375
ell 198, elapsed: 0.00048804283142089844
ell 192, elapsed: 0.0008671283721923828
ell 191, elapsed: 0.0004820823669433594
ell 190, elapsed: 0.0004930496215820312
ell 189, elapsed: 0.0004780292510986328
ell 188, elapsed: 0.00048613548278808594
ell 182, elapsed: 0.0010612010955810547
ell 181, elapsed: 0.0005578994750976562
ell 180, elapsed: 0.0005679130554199219
ell 179, elapsed: 0.00055694580078125
ell 178, elapsed: 0.0005738735198974609
ell 172, elapsed: 0.0010170936584472656
ell 171, elapsed: 0.000514984130859375
ell 170, elapsed: 0.0005338191986083984
ell 169, elapsed: 0.0005161762237548828
ell 168, elapsed: 0.000537872314453125
ell 162, elapsed: 0.0009610652923583984
ell 161, elapsed: 0.0005629062652587891
ell 160, elapsed: 0.0005400180816650391
ell 159, elapsed: 0.0005309581756591797
ell 158, elapsed: 0.0005321502685546875
ell 152, elapsed: 0.0009419918060302734
ell 151, elapsed: 0.0005521774291992188
ell 150, elapsed: 0.0005559921264648438
ell 149, elapsed: 0.0005970001220703125
ell 148, elapsed: 0.0005469322204589844
ell 142, elapsed: 0.0013709068298339844
ell 141, elapsed: 0.001001119613647461
ell 140, elapsed: 0.0010590553283691406
ell 139, elapsed: 0.0010080337524414062
ell 138, elapsed: 0.0005490779876708984
ell 132, elapsed: 0.0010161399841308594
ell 131, elapsed: 0.0005288124084472656
ell 130, elapsed: 0.0005719661712646484
ell 129, elapsed: 0.0005311965942382812
ell 128, elapsed: 0.0005371570587158203
ell 122, elapsed: 0.0009610652923583984
ell 121, elapsed: 0.0005259513854980469
ell 120, elapsed: 0.0005271434783935547
ell 119, elapsed: 0.0005490779876708984
ell 118, elapsed: 0.0005240440368652344
ell 112, elapsed: 0.0009169578552246094
ell 111, elapsed: 0.0005288124084472656
ell 110, elapsed: 0.0005409717559814453
ell 109, elapsed: 0.0005328655242919922
ell 108, elapsed: 0.0005280971527099609
ell 102, elapsed: 0.0009868144989013672
ell 101, elapsed: 0.002254009246826172
ell 100, elapsed: 0.00513005256652832
ell 99, elapsed: 0.002234935760498047
ell 98, elapsed: 0.0022821426391601562
ell 92, elapsed: 0.004417896270751953
ell 91, elapsed: 0.002274036407470703
ell 90, elapsed: 0.0024318695068359375
ell 89, elapsed: 0.002385854721069336
ell 88, elapsed: 0.005738019943237305
ell 82, elapsed: 0.00401616096496582
ell 81, elapsed: 0.002093076705932617
ell 80, elapsed: 0.0021250247955322266
ell 79, elapsed: 0.0021851062774658203
ell 78, elapsed: 0.002209186553955078
ell 72, elapsed: 0.004453897476196289
ell 71, elapsed: 0.011900901794433594
ell 70, elapsed: 0.0022890567779541016
ell 69, elapsed: 0.0021889209747314453
ell 68, elapsed: 0.002232074737548828
ell 62, elapsed: 0.004318952560424805
ell 61, elapsed: 0.0022110939025878906
ell 60, elapsed: 0.002198934555053711
ell 59, elapsed: 0.002206087112426758
ell 58, elapsed: 0.0022389888763427734
ell 52, elapsed: 0.004454135894775391
ell 51, elapsed: 0.0022690296173095703
ell 50, elapsed: 0.0023047924041748047
ell 49, elapsed: 0.0022301673889160156
ell 48, elapsed: 0.0022819042205810547
ell 42, elapsed: 0.004405975341796875
ell 41, elapsed: 0.0022139549255371094
ell 40, elapsed: 0.002302885055541992
ell 39, elapsed: 0.002249002456665039
ell 38, elapsed: 0.002229928970336914
ell 32, elapsed: 0.004391908645629883
ell 31, elapsed: 0.002226114273071289
ell 30, elapsed: 0.0022339820861816406
ell 29, elapsed: 0.002276182174682617
ell 28, elapsed: 0.002248048782348633
ell 22, elapsed: 0.004503011703491211
ell 21, elapsed: 0.0023889541625976562
ell 20, elapsed: 0.002422809600830078
ell 19, elapsed: 0.0022449493408203125
ell 18, elapsed: 0.0022788047790527344
ell 12, elapsed: 0.004297018051147461
ell 11, elapsed: 0.0022230148315429688
ell 10, elapsed: 0.0022230148315429688
ell 9, elapsed: 0.002329111099243164
ell 8, elapsed: 0.002251863479614258
  0.546269 seconds (68.56 k allocations: 12.176 MiB)
elapsed: 0.0027010440826416016
step:          0.041442 sec (0 allocations: 0 byte, 0.0% gc time)
swapping:      0.000366 sec (0 allocations: 0 byte, 0.0% gc time)
calc_Mellell!: 0.019453 sec (0 allocations: 0 byte, 0.0% gc time)
  t0 :  0.006611 sec (0 allocations: 0 byte, 0.0% gc time)
  tm2 : 0.061306 sec (0 allocations: 0 byte, 0.0% gc time)
  tm2s: 0.004829 sec (0 allocations: 0 byte, 0.0% gc time)
  tm4 : 0.120907 sec (0 allocations: 0 byte, 0.0% gc time)
  tp2 : 0.0 sec (0 allocations: 0 byte, 0.0% gc time)
  tp2s: 0.0 sec (0 allocations: 0 byte, 0.0% gc time)
  tp4 : 0.0 sec (0 allocations: 0 byte, 0.0% gc time)
calc_wtdll!:   0.380831 sec (48.6 k allocations: 11.096 MB, 0.0% gc time)
calc_wljj!:    0.019748 sec (69 allocations: 1.078 KB, 0.0% gc time)
mult_prefac!:  0.0 sec (0 allocations: 0 byte, 0.0% gc time)
convert:       0.0 sec (0 allocations: 0 byte, 0.0% gc time)
write:         0.022377 sec (0 allocations: 0 byte, 0.0% gc time)
test_rand_2f1: 0.0 sec (0 allocations: 0 byte, 0.0% gc time)
Closing outfile out/MlCache/MlCache.bin...   0.000009 seconds
xi, l=0, nu=0:   0.266153 seconds (603.12 k allocations: 32.984 MiB, 99.33% compilation time)
xi, l=0, nu=-2:  0.001499 seconds (114 allocations: 148.969 KiB)
Created 'out/xi.tsv'.
  q=1.1, R=0.6:	  0.401635 seconds (264.58 k allocations: 38.109 MiB, 3.21% gc time)
  q=1.1, R=0.7:	  0.450972 seconds (276.43 k allocations: 40.113 MiB, 2.03% gc time)
  q=1.1, R=0.8:	  0.518730 seconds (271.87 k allocations: 39.334 MiB, 1.04% gc time)
  q=1.1, R=0.9:	  0.534393 seconds (266.68 k allocations: 38.464 MiB, 0.97% gc time)
  q=1.1, R=0.998:	 15.590563 seconds (114.96 k allocations: 7.588 MiB)
  q=1.1, R=1.0:	  0.002738 seconds (8.20 k allocations: 704.344 KiB)

ℓ = 1000
Δℓ = 4
ΔℓRg1 = -4
N = 4096
q = 1.1
kmin = 1.0e-5
kmax = 1000.0
χ0 = 0.001
RR = RR.tsv
ℓmax = ℓmax.bin
f21 = f21.bin
kmin = 1.0e-5
kmax = 1000.0
dlrec    = 4
dlrecRg1 = -4
Output size: 1573632 bytes = 0.0014655590057373047 GiB
Output size: 786816 bytes = 0.0007327795028686523 GiB
Reading 'out/F21EllCache'...   0.001097 seconds (198 allocations: 533.078 KiB)
ellmax: 1002
lmaxcache: 1000
fell[:,1,1] = ComplexF64[1.726292812820208e-224 - 4.2281979352226965e-240im, 1.7282693092099638e-224 - 4.233038955177178e-240im]
ell 1002, elapsed: 2.47955322265625e-5
ell 1001, elapsed: 0.0005540847778320312
ell 1000, elapsed: 0.0007691383361816406
ell 999, elapsed: 0.0038208961486816406
ell 998, elapsed: 0.003822803497314453
ell 44, elapsed: 0.5958678722381592
ell 43, elapsed: 0.0038111209869384766
ell 42, elapsed: 0.003992795944213867
ell 41, elapsed: 0.003754854202270508
ell 40, elapsed: 0.0037310123443603516
  0.625997 seconds (4.59 k allocations: 322.266 KiB)
elapsed: 0.004532814025878906
step:          0.579384 sec (0 allocations: 0 byte, 0.0% gc time)
swapping:      0.000326 sec (0 allocations: 0 byte, 0.0% gc time)
calc_Mellell!: 0.000731 sec (0 allocations: 0 byte, 0.0% gc time)
  t0 :  0.000319 sec (0 allocations: 0 byte, 0.0% gc time)
  tm2 : 0.007309 sec (0 allocations: 0 byte, 0.0% gc time)
  tm2s: 0.000245 sec (0 allocations: 0 byte, 0.0% gc time)
  tm4 : 0.017681 sec (0 allocations: 0 byte, 0.0% gc time)
  tp2 : 0.0 sec (0 allocations: 0 byte, 0.0% gc time)
  tp2s: 0.0 sec (0 allocations: 0 byte, 0.0% gc time)
  tp4 : 0.0 sec (0 allocations: 0 byte, 0.0% gc time)
calc_wtdll!:   0.025654 sec (480 allocations: 52.5 KB, 0.0% gc time)
calc_wljj!:    0.000606 sec (1 allocations: 16 byte, 0.0% gc time)
mult_prefac!:  0.0 sec (0 allocations: 0 byte, 0.0% gc time)
convert:       0.0 sec (0 allocations: 0 byte, 0.0% gc time)
write:         0.000882 sec (0 allocations: 0 byte, 0.0% gc time)
test_rand_2f1: 0.0 sec (0 allocations: 0 byte, 0.0% gc time)
Closing outfile out/MlCache/MlCache.bin...   0.000007 seconds
  0.378386 seconds (38 allocations: 66.859 KiB)
make_phi():   0.006336 seconds (65 allocations: 275.984 KiB)
  0.034808 seconds (11.42 k allocations: 711.960 KiB, 90.84% compilation time)
tskip:       0.0 sec (0 allocations: 0 byte, 0.0% gc time)
tread:       0.000551 sec (17 allocations: 1.266 KB, 0.0% gc time)
tmultphi:    0.00027 sec (0 allocations: 0 byte, 0.0% gc time)
tbrfft:      0.000901 sec (0 allocations: 0 byte, 0.0% gc time)
tmultprefac: 0.000474 sec (0 allocations: 0 byte, 0.0% gc time)
toutfunc:    0.000103 sec (0 allocations: 0 byte, 0.0% gc time)
Created 'out/wl42_jj00.tsv'.
Created 'out/wl42_jj02.tsv'.
    Testing TwoFAST tests passed 
