Julia Version 1.6.0-DEV.1177
Commit 113afd9309 (2020-10-10 16:54 UTC)
Platform Info:
  OS: Linux (x86_64-pc-linux-gnu)
  CPU: AMD EPYC 7502 32-Core Processor
  WORD_SIZE: 64
  LIBM: libopenlibm
  LLVM: libLLVM-10.0.1 (ORCJIT, znver2)
Environment:
  JULIA_DEPOT_PATH = ::/usr/local/share/julia
  JULIA_NUM_THREADS = 2
  JULIA_MAX_NUM_PRECOMPILE_FILES = 9223372036854775807

  Resolving package versions...
  Installed Reexport ───────────────────── v0.2.0
  Installed FFTW_jll ───────────────────── v3.3.9+5
  Installed MKL_jll ────────────────────── v2020.2.254+0
  Installed AbstractFFTs ───────────────── v0.5.0
  Installed GenericSVD ─────────────────── v0.3.0
  Installed SpecialFunctions ───────────── v0.10.3
  Installed ArbNumerics ────────────────── v1.2.1
  Installed CompilerSupportLibraries_jll ─ v0.3.3+0
  Installed IntelOpenMP_jll ────────────── v2018.0.3+0
  Installed Readables ──────────────────── v0.3.3
  Installed OpenSpecFun_jll ────────────── v0.5.3+3
  Installed TwoFAST ────────────────────── v0.1.3
  Installed FFTW ───────────────────────── v1.2.4
  Installed BinaryProvider ─────────────── v0.5.10
  Installed GenericSchur ───────────────── v0.4.0
Updating `~/.julia/environments/v1.6/Project.toml`
  [0dd23c3e] + TwoFAST v0.1.3
Updating `~/.julia/environments/v1.6/Manifest.toml`
  [621f4979] + AbstractFFTs v0.5.0
  [7e558dbc] + ArbNumerics v1.2.1
  [b99e7846] + BinaryProvider v0.5.10
  [e66e0078] + CompilerSupportLibraries_jll v0.3.3+0
  [7a1cc6ca] + FFTW v1.2.4
  [f5851436] + FFTW_jll v3.3.9+5
  [01680d73] + GenericSVD v0.3.0
  [c145ed77] + GenericSchur v0.4.0
  [1d5cc7b8] + IntelOpenMP_jll v2018.0.3+0
  [856f044c] + MKL_jll v2020.2.254+0
  [efe28fd5] + OpenSpecFun_jll v0.5.3+3
  [0d4725de] + Readables v0.3.3
  [189a3867] + Reexport v0.2.0
  [276daf66] + SpecialFunctions v0.10.3
  [0dd23c3e] + TwoFAST v0.1.3
  [56f22d72] + Artifacts
  [2a0f44e3] + Base64
  [ade2ca70] + Dates
  [8bb1440f] + DelimitedFiles
  [b77e0a4c] + InteractiveUtils
  [76f85450] + LibGit2
  [8f399da3] + Libdl
  [37e2e46d] + LinearAlgebra
  [56ddb016] + Logging
  [d6f4376e] + Markdown
  [a63ad114] + Mmap
  [44cfe95a] + Pkg
  [de0858da] + Printf
  [3fa0cd96] + REPL
  [9a3f8284] + Random
  [ea8e919c] + SHA
  [9e88b42a] + Serialization
  [6462fe0b] + Sockets
  [fa267f1f] + TOML
  [8dfed614] + Test
  [cf7118a7] + UUIDs
  [4ec0a83e] + Unicode
   Building ArbNumerics → `~/.julia/scratchspaces/44cfe95a-1eb2-52ea-b672-e2afdf69b78f/329a81d67c64e3a51c176a243b6424fbe39213d0/build.log`
   Building FFTW ───────→ `~/.julia/scratchspaces/44cfe95a-1eb2-52ea-b672-e2afdf69b78f/8b7c16b56936047ca41bf25effa137ae0b381ae8/build.log`
    Testing TwoFAST
Status `/tmp/jl_ge4OE0/Project.toml`
  [7e558dbc] ArbNumerics v1.2.1
  [39dd38d3] Dierckx v0.5.0
  [7a1cc6ca] FFTW v1.2.4
  [276daf66] SpecialFunctions v0.10.3
  [0dd23c3e] TwoFAST v0.1.3
  [8bb1440f] DelimitedFiles
  [37e2e46d] LinearAlgebra
  [56ddb016] Logging
  [8dfed614] Test
Status `/tmp/jl_ge4OE0/Manifest.toml`
  [621f4979] AbstractFFTs v0.5.0
  [7e558dbc] ArbNumerics v1.2.1
  [b99e7846] BinaryProvider v0.5.10
  [e66e0078] CompilerSupportLibraries_jll v0.3.3+0
  [39dd38d3] Dierckx v0.5.0
  [cd4c43a9] Dierckx_jll v0.0.1+0
  [7a1cc6ca] FFTW v1.2.4
  [f5851436] FFTW_jll v3.3.9+5
  [01680d73] GenericSVD v0.3.0
  [c145ed77] GenericSchur v0.4.0
  [1d5cc7b8] IntelOpenMP_jll v2018.0.3+0
  [856f044c] MKL_jll v2020.2.254+0
  [efe28fd5] OpenSpecFun_jll v0.5.3+3
  [0d4725de] Readables v0.3.3
  [189a3867] Reexport v0.2.0
  [276daf66] SpecialFunctions v0.10.3
  [0dd23c3e] TwoFAST v0.1.3
  [56f22d72] Artifacts
  [2a0f44e3] Base64
  [ade2ca70] Dates
  [8bb1440f] DelimitedFiles
  [b77e0a4c] InteractiveUtils
  [76f85450] LibGit2
  [8f399da3] Libdl
  [37e2e46d] LinearAlgebra
  [56ddb016] Logging
  [d6f4376e] Markdown
  [a63ad114] Mmap
  [44cfe95a] Pkg
  [de0858da] Printf
  [3fa0cd96] REPL
  [9a3f8284] Random
  [ea8e919c] SHA
  [9e88b42a] Serialization
  [6462fe0b] Sockets
  [fa267f1f] TOML
  [8dfed614] Test
  [cf7118a7] UUIDs
  [4ec0a83e] Unicode
    Testing Running tests...
WARNING: could not import Printf.ini_hex into ArbNumerics
WARNING: could not import Printf.ini_HEX into ArbNumerics
t = 0.0 sec (0 allocations: 0 byte, 0.0% gc time)
typeof(t) = NamedTuple{(:value, :time, :bytes, :gctime, :gcstats), Tuple{DataType, Float64, Int64, Float64, Base.GC_Diff}}
TwoFAST.PerformanceStats.TimedType = Union{NamedTuple{(:value, :time, :bytes, :gctime, :gcstats), Tuple{T, Float64, Int64, Float64, Base.GC_Diff}}, Tuple{Any, Float64, Int64, Float64, Base.GC_Diff}} where T
t = 0.0 sec (0 allocations: 0 byte, 0.0% gc time)
t: 0.0 sec (0 allocations: 0 byte, 0.0% gc time)
Testing ξ(r), ℓ=0, ν=-1 ... passed
Testing ξ(r), ℓ=0, ν=0 ... passed
Testing ξ(r), ℓ=0, ν=1 ... passed
Testing ξ(r), ℓ=0, ν=2 ... passed
Testing ξ(r), ℓ=0, ν=3 ... passed
Testing ξ(r), ℓ=1, ν=0 ... passed
Testing ξ(r), ℓ=1, ν=1 ... passed
Testing ξ(r), ℓ=1, ν=2 ... passed
Testing ξ(r), ℓ=1, ν=3 ... passed
Testing ξ(r), ℓ=2, ν=-1 ... passed
Testing ξ(r), ℓ=2, ν=0 ... passed
Testing ξ(r), ℓ=2, ν=1 ... passed
Testing ξ(r), ℓ=2, ν=2 ... passed
Testing ξ(r), ℓ=2, ν=3 ... passed
Testing ξ(r), ℓ=3, ν=-1 ... passed
Testing ξ(r), ℓ=3, ν=0 ... passed
Testing ξ(r), ℓ=3, ν=1 ... passed
Testing ξ(r), ℓ=3, ν=2 ... passed
Testing ξ(r), ℓ=3, ν=3 ... passed
Testing ξ(r), ℓ=4, ν=-1 ... passed
Testing ξ(r), ℓ=4, ν=0 ... passed
Testing ξ(r), ℓ=4, ν=1 ... passed
Testing ξ(r), ℓ=4, ν=2 ... passed
Testing ξ(r), ℓ=4, ν=3 ... passed
Testing ξ(r) ... passed
Testing ξ′(r) ... passed
Testing ξ″(r) ... passed
Calculating fmax: 
  dlrec    = 4
  dlrecRg1 = -4
  q=1.1, R=1.1:	  3.112797 seconds (848.81 k allocations: 54.177 MiB, 1.39% gc time, 90.97% compilation time)

  3.113053 seconds (848.87 k allocations: 54.212 MiB, 1.39% gc time, 90.97% compilation time)
ℓ = 1202
Δℓ = 4
ΔℓRg1 = -4
N = 1600
q = 1.1
kmin = 1.0e-5
kmax = 100000.00000000004
χ0 = 0.023029999999999995
RR = RR.tsv
ℓmax = ℓmax.bin
f21 = f21.bin
kmin = 1.0e-5
kmax = 100000.0
dlrec    = 4
dlrecRg1 = -4
Output size: 5741568 bytes = 0.005347251892089844 GiB
Output size: 51264 bytes = 4.774332046508789e-5 GiB
Reading 'out/F21EllCache'...   0.626405 seconds (426.50 k allocations: 24.993 MiB, 4.80% gc time, 99.60% compilation time)
ellmax: 1202
lmaxcache: 1202
fell[:,1,1] = ComplexF64[3.9583795592771634e-52 - 9.695233714158177e-68im, 3.990121772925759e-52 - 9.772979714843386e-68im]
ell 1202, elapsed: 8.296966552734375e-5
ell 1201, elapsed: 0.8607170581817627
ell 1200, elapsed: 0.0004210472106933594
ell 1199, elapsed: 0.0003972053527832031
ell 1198, elapsed: 0.0003910064697265625
ell 1002, elapsed: 0.008419990539550781
ell 1001, elapsed: 0.00039505958557128906
ell 1000, elapsed: 0.00038909912109375
ell 999, elapsed: 0.0003859996795654297
ell 998, elapsed: 0.0003819465637207031
ell 902, elapsed: 0.004339933395385742
ell 901, elapsed: 0.00038909912109375
ell 900, elapsed: 0.00037407875061035156
ell 899, elapsed: 0.00037288665771484375
ell 898, elapsed: 0.00036406517028808594
ell 802, elapsed: 0.003952980041503906
ell 801, elapsed: 0.00035500526428222656
ell 800, elapsed: 0.00035500526428222656
ell 799, elapsed: 0.00034999847412109375
ell 798, elapsed: 0.0003490447998046875
ell 702, elapsed: 0.003849029541015625
ell 701, elapsed: 0.000347137451171875
ell 700, elapsed: 0.00034308433532714844
ell 699, elapsed: 0.0003681182861328125
ell 698, elapsed: 0.0003428459167480469
ell 602, elapsed: 0.0038039684295654297
ell 601, elapsed: 0.00034499168395996094
ell 600, elapsed: 0.0003418922424316406
ell 599, elapsed: 0.00034689903259277344
ell 598, elapsed: 0.00034499168395996094
ell 502, elapsed: 0.0038230419158935547
ell 501, elapsed: 0.00034499168395996094
ell 500, elapsed: 0.00035190582275390625
ell 499, elapsed: 0.00034618377685546875
ell 498, elapsed: 0.0003459453582763672
ell 402, elapsed: 0.0038309097290039062
ell 401, elapsed: 0.0003440380096435547
ell 400, elapsed: 0.0003418922424316406
ell 399, elapsed: 0.0003421306610107422
ell 398, elapsed: 0.0003619194030761719
ell 302, elapsed: 0.0038340091705322266
ell 301, elapsed: 0.0003590583801269531
ell 300, elapsed: 0.00034689903259277344
ell 299, elapsed: 0.0003490447998046875
ell 298, elapsed: 0.00034689903259277344
ell 202, elapsed: 0.0038399696350097656
ell 201, elapsed: 0.0003459453582763672
ell 200, elapsed: 0.00034618377685546875
ell 199, elapsed: 0.0003428459167480469
ell 198, elapsed: 0.0003418922424316406
ell 152, elapsed: 0.002031087875366211
ell 151, elapsed: 0.0003440380096435547
ell 150, elapsed: 0.0003440380096435547
ell 149, elapsed: 0.0003428459167480469
ell 148, elapsed: 0.0003418922424316406
ell 127, elapsed: 0.001096963882446289
ell 126, elapsed: 0.00034999847412109375
ell 125, elapsed: 0.00036597251892089844
ell 124, elapsed: 0.00034308433532714844
ell 123, elapsed: 0.0003428459167480469
ell 114, elapsed: 0.0006680488586425781
ell 113, elapsed: 0.0003421306610107422
ell 112, elapsed: 0.0003421306610107422
ell 111, elapsed: 0.0003421306610107422
ell 110, elapsed: 0.0003418922424316406
ell 102, elapsed: 0.0006201267242431641
ell 101, elapsed: 0.0003421306610107422
ell 100, elapsed: 0.0004088878631591797
ell 99, elapsed: 0.0003428459167480469
ell 98, elapsed: 0.0003421306610107422
ell 97, elapsed: 0.00037288665771484375
ell 96, elapsed: 0.0003719329833984375
ell 95, elapsed: 0.00036716461181640625
ell 94, elapsed: 0.0003712177276611328
ell 93, elapsed: 0.0003650188446044922
ell 92, elapsed: 0.0003681182861328125
ell 91, elapsed: 0.00037384033203125
ell 90, elapsed: 0.00040078163146972656
ell 89, elapsed: 0.0003829002380371094
ell 88, elapsed: 0.00037217140197753906
ell 87, elapsed: 0.000370025634765625
ell 86, elapsed: 0.0003750324249267578
ell 85, elapsed: 0.00036597251892089844
ell 84, elapsed: 0.00038313865661621094
ell 83, elapsed: 0.000370025634765625
ell 82, elapsed: 0.00037097930908203125
ell 81, elapsed: 0.00037384033203125
ell 80, elapsed: 0.0004432201385498047
ell 79, elapsed: 0.0004520416259765625
ell 78, elapsed: 0.0004448890686035156
ell 77, elapsed: 0.00043010711669921875
ell 76, elapsed: 0.00043201446533203125
ell 75, elapsed: 0.00042319297790527344
ell 74, elapsed: 0.00042891502380371094
ell 73, elapsed: 0.00042891502380371094
ell 72, elapsed: 0.0004360675811767578
ell 71, elapsed: 0.0004849433898925781
ell 70, elapsed: 0.00042891502380371094
ell 69, elapsed: 0.0004189014434814453
ell 68, elapsed: 0.0004119873046875
ell 67, elapsed: 0.0004150867462158203
ell 66, elapsed: 0.00041604042053222656
ell 65, elapsed: 0.0004107952117919922
ell 64, elapsed: 0.0004210472106933594
ell 63, elapsed: 0.0004169940948486328
ell 62, elapsed: 0.0004470348358154297
ell 61, elapsed: 0.00041294097900390625
ell 60, elapsed: 0.00041413307189941406
ell 59, elapsed: 0.0004189014434814453
ell 58, elapsed: 0.00041604042053222656
ell 57, elapsed: 0.0006120204925537109
ell 56, elapsed: 0.0004150867462158203
ell 55, elapsed: 0.0006070137023925781
ell 54, elapsed: 0.0004839897155761719
ell 53, elapsed: 0.0004639625549316406
ell 52, elapsed: 0.00045990943908691406
ell 51, elapsed: 0.000637054443359375
ell 50, elapsed: 0.0004291534423828125
ell 49, elapsed: 0.0006220340728759766
ell 48, elapsed: 0.00040793418884277344
ell 47, elapsed: 0.0004189014434814453
ell 46, elapsed: 0.0004417896270751953
ell 45, elapsed: 0.0005741119384765625
ell 44, elapsed: 0.0004220008850097656
ell 43, elapsed: 0.0004220008850097656
ell 42, elapsed: 0.00042510032653808594
ell 41, elapsed: 0.0004298686981201172
ell 40, elapsed: 0.0004200935363769531
ell 39, elapsed: 0.0004391670227050781
ell 38, elapsed: 0.0004429817199707031
ell 37, elapsed: 0.00043702125549316406
ell 36, elapsed: 0.00042700767517089844
ell 35, elapsed: 0.00043511390686035156
ell 34, elapsed: 0.00043392181396484375
ell 33, elapsed: 0.0004229545593261719
ell 32, elapsed: 0.00041794776916503906
ell 31, elapsed: 0.00041484832763671875
ell 30, elapsed: 0.00041294097900390625
ell 29, elapsed: 0.00047206878662109375
ell 28, elapsed: 0.0004661083221435547
ell 27, elapsed: 0.00044417381286621094
ell 26, elapsed: 0.00043702125549316406
ell 25, elapsed: 0.0004360675811767578
ell 24, elapsed: 0.0004279613494873047
ell 23, elapsed: 0.00040721893310546875
ell 22, elapsed: 0.00043010711669921875
ell 21, elapsed: 0.0004088878631591797
ell 20, elapsed: 0.00044417381286621094
ell 19, elapsed: 0.0004010200500488281
ell 18, elapsed: 0.0004010200500488281
ell 17, elapsed: 0.00041604042053222656
ell 16, elapsed: 0.0004038810729980469
ell 15, elapsed: 0.00041604042053222656
ell 14, elapsed: 0.0004010200500488281
ell 13, elapsed: 0.0004031658172607422
ell 12, elapsed: 0.0003991127014160156
ell 11, elapsed: 0.0004069805145263672
ell 10, elapsed: 0.00040793418884277344
ell 9, elapsed: 0.00039887428283691406
ell 8, elapsed: 0.00039315223693847656
ell 7, elapsed: 0.00041604042053222656
ell 6, elapsed: 0.0003960132598876953
ell 5, elapsed: 0.00040602684020996094
ell 4, elapsed: 0.0003941059112548828
ell 3, elapsed: 0.0004100799560546875
ell 2, elapsed: 0.00040602684020996094
ell 1, elapsed: 0.00045013427734375
ell 0, elapsed: 0.0004069805145263672
  1.363243 seconds (1.38 M allocations: 74.543 MiB, 3.86% gc time, 91.96% compilation time)
elapsed: 0.0004999637603759766
step:          0.243987 sec (311.15 k allocations: 16.965 MB, 6.09% gc time)
swapping:      0.000234 sec (0 allocations: 0 byte, 0.0% gc time)
calc_Mellell!: 0.088684 sec (135.745 k allocations: 7.433 MB, 0.0% gc time)
  t0 :  0.0 sec (0 allocations: 0 byte, 0.0% gc time)
  tm2 : 0.0 sec (0 allocations: 0 byte, 0.0% gc time)
  tm2s: 0.0 sec (0 allocations: 0 byte, 0.0% gc time)
  tm4 : 0.0 sec (0 allocations: 0 byte, 0.0% gc time)
  tp2 : 0.0 sec (0 allocations: 0 byte, 0.0% gc time)
  tp2s: 0.0 sec (0 allocations: 0 byte, 0.0% gc time)
  tp4 : 0.0 sec (0 allocations: 0 byte, 0.0% gc time)
calc_wtdll!:   0.62602 sec (509.624 k allocations: 28.197 MB, 0.0% gc time)
calc_wljj!:    0.001781 sec (6 allocations: 96 byte, 0.0% gc time)
mult_prefac!:  0.0 sec (0 allocations: 0 byte, 0.0% gc time)
convert:       0.0 sec (0 allocations: 0 byte, 0.0% gc time)
write:         0.002661 sec (0 allocations: 0 byte, 0.0% gc time)
test_rand_2f1: 0.0 sec (0 allocations: 0 byte, 0.0% gc time)
Closing outfile out/Ml21-cache.bin...   0.000016 seconds
  0.856984 seconds (246.31 k allocations: 14.215 MiB, 42.27% compilation time)
make_phi():   0.007862 seconds (8.18 k allocations: 237.844 KiB)
  0.177539 seconds (87.57 k allocations: 4.748 MiB, 95.39% compilation time)
tskip:       1.0e-5 sec (0 allocations: 0 byte, 0.0% gc time)
tread:       0.001598 sec (17 allocations: 2.125 KB, 0.0% gc time)
tmultphi:    0.029539 sec (21.425 k allocations: 1.287 MB, 0.0% gc time)
tbrfft:      0.002471 sec (0 allocations: 0 byte, 0.0% gc time)
tmultprefac: 0.000985 sec (0 allocations: 0 byte, 0.0% gc time)
toutfunc:    0.119977 sec (64.483 k allocations: 3.329 MB, 0.0% gc time)
Testing R=1.1 ... passed
Calculating fmax: 
  dlrec    = 4
  dlrecRg1 = -4
  q=1.1, R=1.0:	  0.001157 seconds (3.20 k allocations: 275.344 KiB)

  0.001263 seconds (3.25 k allocations: 310.250 KiB)
ℓ = 1202
Δℓ = 4
ΔℓRg1 = -4
N = 1600
q = 1.1
kmin = 1.0e-5
kmax = 100000.00000000004
χ0 = 0.023029999999999995
RR = RR.tsv
ℓmax = ℓmax.bin
f21 = f21.bin
kmin = 1.0e-5
kmax = 100000.0
dlrec    = 4
dlrecRg1 = -4
Output size: 61465536 bytes = 0.05724424123764038 GiB
Output size: 51264 bytes = 4.774332046508789e-5 GiB
Reading 'out/F21EllCache'...   0.000741 seconds (197 allocations: 84.203 KiB)
ellmax: 1202
lmaxcache: 1202
fell[:,1,1] = ComplexF64[809.6031528389767 - 1.9829558194077161e-13im, 0.0 + 0.0im]
ell 1202, elapsed: 2.384185791015625e-5
ell 1201, elapsed: 0.013776063919067383
ell 1200, elapsed: 0.012939214706420898
ell 1199, elapsed: 0.0002541542053222656
ell 1198, elapsed: 0.0002529621124267578
ell 1197, elapsed: 0.00031685829162597656
ell 1196, elapsed: 0.0002899169921875
ell 1195, elapsed: 0.00028586387634277344
ell 1194, elapsed: 0.0002810955047607422
ell 1193, elapsed: 0.00028514862060546875
ell 1192, elapsed: 0.00028514862060546875
ell 1191, elapsed: 0.0002930164337158203
ell 1190, elapsed: 0.00028204917907714844
ell 1189, elapsed: 0.0003108978271484375
ell 1188, elapsed: 0.0002911090850830078
ell 1187, elapsed: 0.0006220340728759766
ell 1186, elapsed: 0.0005199909210205078
ell 1185, elapsed: 0.0005030632019042969
ell 1184, elapsed: 0.0004889965057373047
ell 1183, elapsed: 0.0004949569702148438
ell 1182, elapsed: 0.0005021095275878906
ell 1181, elapsed: 0.0010619163513183594
ell 1180, elapsed: 0.0004868507385253906
ell 1179, elapsed: 0.00049591064453125
ell 1178, elapsed: 0.0002849102020263672
ell 1177, elapsed: 0.00029206275939941406
ell 1176, elapsed: 0.00028014183044433594
ell 1175, elapsed: 0.0002830028533935547
ell 1174, elapsed: 0.0002911090850830078
ell 1173, elapsed: 0.0002810955047607422
ell 1172, elapsed: 0.0002911090850830078
ell 1171, elapsed: 0.0003180503845214844
ell 1170, elapsed: 0.00028395652770996094
ell 1169, elapsed: 0.0002868175506591797
ell 1168, elapsed: 0.00028204917907714844
ell 1167, elapsed: 0.00029206275939941406
ell 1166, elapsed: 0.0002789497375488281
ell 1165, elapsed: 0.0002799034118652344
ell 1164, elapsed: 0.0002930164337158203
ell 1163, elapsed: 0.0002770423889160156
ell 1162, elapsed: 0.0002849102020263672
ell 1161, elapsed: 0.00028204917907714844
ell 1160, elapsed: 0.00027680397033691406
ell 1159, elapsed: 0.00028395652770996094
ell 1158, elapsed: 0.00030303001403808594
ell 1157, elapsed: 0.000286102294921875
ell 1156, elapsed: 0.0002770423889160156
ell 1155, elapsed: 0.00027298927307128906
ell 1154, elapsed: 0.0002830028533935547
ell 1153, elapsed: 0.0002758502960205078
ell 1152, elapsed: 0.00028896331787109375
ell 1151, elapsed: 0.0002770423889160156
ell 1150, elapsed: 0.0002799034118652344
ell 1149, elapsed: 0.0002880096435546875
ell 1148, elapsed: 0.0002830028533935547
ell 1147, elapsed: 0.00028705596923828125
ell 1146, elapsed: 0.0002789497375488281
ell 1145, elapsed: 0.0003540515899658203
ell 1144, elapsed: 0.0003018379211425781
ell 1143, elapsed: 0.0002779960632324219
ell 1142, elapsed: 0.00028586387634277344
ell 1141, elapsed: 0.0002808570861816406
ell 1140, elapsed: 0.00028395652770996094
ell 1139, elapsed: 0.0002789497375488281
ell 1138, elapsed: 0.0002830028533935547
ell 1137, elapsed: 0.0002892017364501953
ell 1136, elapsed: 0.000286102294921875
ell 1135, elapsed: 0.0002808570861816406
ell 1134, elapsed: 0.0002791881561279297
ell 1133, elapsed: 0.0002810955047607422
ell 1132, elapsed: 0.0003821849822998047
ell 1131, elapsed: 0.0002810955047607422
ell 1130, elapsed: 0.00028586387634277344
ell 1129, elapsed: 0.0002770423889160156
ell 1128, elapsed: 0.0002949237823486328
ell 1127, elapsed: 0.00029397010803222656
ell 1126, elapsed: 0.0002880096435546875
ell 1125, elapsed: 0.00029397010803222656
ell 1124, elapsed: 0.00028395652770996094
ell 1123, elapsed: 0.00028395652770996094
ell 1122, elapsed: 0.0002961158752441406
ell 1121, elapsed: 0.00028705596923828125
ell 1120, elapsed: 0.00028705596923828125
ell 1119, elapsed: 0.00034308433532714844
ell 1118, elapsed: 0.0002961158752441406
ell 1117, elapsed: 0.0003008842468261719
ell 1116, elapsed: 0.00029206275939941406
ell 1115, elapsed: 0.0002970695495605469
ell 1114, elapsed: 0.00028896331787109375
ell 1113, elapsed: 0.0002930164337158203
ell 1112, elapsed: 0.00031304359436035156
ell 1111, elapsed: 0.0002949237823486328
ell 1110, elapsed: 0.0002999305725097656
ell 1109, elapsed: 0.00030803680419921875
ell 1108, elapsed: 0.00029397010803222656
ell 1107, elapsed: 0.0003409385681152344
ell 1106, elapsed: 0.0003008842468261719
ell 1105, elapsed: 0.0003020763397216797
ell 1104, elapsed: 0.0003001689910888672
ell 1103, elapsed: 0.0002989768981933594
ell 1102, elapsed: 0.000308990478515625
ell 1101, elapsed: 0.0002980232238769531
ell 1100, elapsed: 0.00031113624572753906
ell 1099, elapsed: 0.00030994415283203125
ell 1098, elapsed: 0.00030493736267089844
ell 1097, elapsed: 0.00030303001403808594
ell 1096, elapsed: 0.00029397010803222656
ell 1095, elapsed: 0.0002999305725097656
ell 1094, elapsed: 0.00034499168395996094
ell 1093, elapsed: 0.0002980232238769531
ell 1092, elapsed: 0.0002968311309814453
ell 1091, elapsed: 0.0003020763397216797
ell 1090, elapsed: 0.00030612945556640625
ell 1089, elapsed: 0.0002980232238769531
ell 1088, elapsed: 0.0003120899200439453
ell 1087, elapsed: 0.0002970695495605469
ell 1086, elapsed: 0.00029587745666503906
ell 1085, elapsed: 0.0002999305725097656
ell 1084, elapsed: 0.0003020763397216797
ell 1083, elapsed: 0.0003001689910888672
ell 1082, elapsed: 0.0003330707550048828
ell 1081, elapsed: 0.0002911090850830078
ell 1080, elapsed: 0.0002911090850830078
ell 1079, elapsed: 0.00029087066650390625
ell 1078, elapsed: 0.0002970695495605469
ell 1077, elapsed: 0.00029206275939941406
ell 1076, elapsed: 0.0003020763397216797
ell 1075, elapsed: 0.0002980232238769531
ell 1074, elapsed: 0.0002999305725097656
ell 1073, elapsed: 0.0003008842468261719
ell 1072, elapsed: 0.0003008842468261719
ell 1071, elapsed: 0.00030303001403808594
ell 1070, elapsed: 0.00030994415283203125
ell 1069, elapsed: 0.00039005279541015625
ell 1068, elapsed: 0.00030303001403808594
ell 1067, elapsed: 0.0002980232238769531
ell 1066, elapsed: 0.0003020763397216797
ell 1065, elapsed: 0.0003039836883544922
ell 1064, elapsed: 0.00029587745666503906
ell 1063, elapsed: 0.0003020763397216797
ell 1062, elapsed: 0.00029087066650390625
ell 1061, elapsed: 0.000308990478515625
ell 1060, elapsed: 0.0003039836883544922
ell 1059, elapsed: 0.00029397010803222656
ell 1058, elapsed: 0.0003058910369873047
ell 1057, elapsed: 0.00032806396484375
ell 1056, elapsed: 0.0002989768981933594
ell 1055, elapsed: 0.0003020763397216797
ell 1054, elapsed: 0.00029397010803222656
ell 1053, elapsed: 0.00029587745666503906
ell 1052, elapsed: 0.0003070831298828125
ell 1051, elapsed: 0.00031185150146484375
ell 1050, elapsed: 0.0003008842468261719
ell 1049, elapsed: 0.0002980232238769531
ell 1048, elapsed: 0.0002949237823486328
ell 1047, elapsed: 0.00029587745666503906
ell 1046, elapsed: 0.0002999305725097656
ell 1045, elapsed: 0.0003421306610107422
ell 1044, elapsed: 0.0002949237823486328
ell 1043, elapsed: 0.00030112266540527344
ell 1042, elapsed: 0.0002930164337158203
ell 1041, elapsed: 0.0002968311309814453
ell 1040, elapsed: 0.0002930164337158203
ell 1039, elapsed: 0.00029397010803222656
ell 1038, elapsed: 0.0003070831298828125
ell 1037, elapsed: 0.0003018379211425781
ell 1036, elapsed: 0.0003039836883544922
ell 1035, elapsed: 0.0003070831298828125
ell 1034, elapsed: 0.0003039836883544922
ell 1033, elapsed: 0.00030803680419921875
ell 1032, elapsed: 0.0003108978271484375
ell 1031, elapsed: 0.00030994415283203125
ell 1030, elapsed: 0.00030493736267089844
ell 1029, elapsed: 0.0003108978271484375
ell 1028, elapsed: 0.00030803680419921875
ell 1027, elapsed: 0.00030303001403808594
ell 1026, elapsed: 0.0003070831298828125
ell 1025, elapsed: 0.00030303001403808594
ell 1024, elapsed: 0.0003139972686767578
ell 1023, elapsed: 0.00030803680419921875
ell 1022, elapsed: 0.00030493736267089844
ell 1021, elapsed: 0.00035309791564941406
ell 1020, elapsed: 0.0003020763397216797
ell 1019, elapsed: 0.0003027915954589844
ell 1018, elapsed: 0.0003018379211425781
ell 1017, elapsed: 0.0002980232238769531
ell 1016, elapsed: 0.0002989768981933594
ell 1015, elapsed: 0.0002930164337158203
ell 1014, elapsed: 0.0003008842468261719
ell 1013, elapsed: 0.00031495094299316406
ell 1012, elapsed: 0.0003001689910888672
ell 1011, elapsed: 0.0003020763397216797
ell 1010, elapsed: 0.0002918243408203125
ell 1009, elapsed: 0.0002961158752441406
ell 1008, elapsed: 0.0004050731658935547
ell 1007, elapsed: 0.0002949237823486328
ell 1006, elapsed: 0.0003101825714111328
ell 1005, elapsed: 0.0003020763397216797
ell 1004, elapsed: 0.00030803680419921875
ell 1003, elapsed: 0.00031685829162597656
ell 1002, elapsed: 0.0003039836883544922
ell 1001, elapsed: 0.0002980232238769531
ell 1000, elapsed: 0.0002968311309814453
ell 999, elapsed: 0.0002899169921875
ell 998, elapsed: 0.00030493736267089844
ell 997, elapsed: 0.00029397010803222656
ell 996, elapsed: 0.00033211708068847656
ell 995, elapsed: 0.0002980232238769531
ell 994, elapsed: 0.00030303001403808594
ell 993, elapsed: 0.00030994415283203125
ell 992, elapsed: 0.0002949237823486328
ell 991, elapsed: 0.0003039836883544922
ell 990, elapsed: 0.0003001689910888672
ell 989, elapsed: 0.0002999305725097656
ell 988, elapsed: 0.0002989768981933594
ell 987, elapsed: 0.0002899169921875
ell 986, elapsed: 0.0003020763397216797
ell 985, elapsed: 0.0002968311309814453
ell 984, elapsed: 0.00032591819763183594
ell 983, elapsed: 0.0003070831298828125
ell 982, elapsed: 0.0002968311309814453
ell 981, elapsed: 0.0002989768981933594
ell 980, elapsed: 0.0002961158752441406
ell 979, elapsed: 0.0002999305725097656
ell 978, elapsed: 0.0002968311309814453
ell 977, elapsed: 0.0002980232238769531
ell 976, elapsed: 0.0002949237823486328
ell 975, elapsed: 0.0002968311309814453
ell 974, elapsed: 0.0002989768981933594
ell 973, elapsed: 0.00029397010803222656
ell 972, elapsed: 0.0002930164337158203
ell 971, elapsed: 0.0003371238708496094
ell 970, elapsed: 0.0002880096435546875
ell 969, elapsed: 0.000286102294921875
ell 968, elapsed: 0.0002799034118652344
ell 967, elapsed: 0.00028705596923828125
ell 966, elapsed: 0.000286102294921875
ell 965, elapsed: 0.00028204917907714844
ell 964, elapsed: 0.00028705596923828125
ell 963, elapsed: 0.0002810955047607422
ell 962, elapsed: 0.0002799034118652344
ell 961, elapsed: 0.00028586387634277344
ell 960, elapsed: 0.0002880096435546875
ell 959, elapsed: 0.0002911090850830078
ell 958, elapsed: 0.00031495094299316406
ell 957, elapsed: 0.00029087066650390625
ell 956, elapsed: 0.0002999305725097656
ell 955, elapsed: 0.0002880096435546875
ell 954, elapsed: 0.0002970695495605469
ell 953, elapsed: 0.0002899169921875
ell 952, elapsed: 0.00028586387634277344
ell 951, elapsed: 0.00028586387634277344
ell 950, elapsed: 0.00028204917907714844
ell 949, elapsed: 0.0002880096435546875
ell 948, elapsed: 0.00028395652770996094
ell 947, elapsed: 0.0002899169921875
ell 946, elapsed: 0.0002951622009277344
ell 945, elapsed: 0.0003180503845214844
ell 944, elapsed: 0.00029206275939941406
ell 943, elapsed: 0.0002849102020263672
ell 942, elapsed: 0.0002880096435546875
ell 941, elapsed: 0.0002951622009277344
ell 940, elapsed: 0.0002880096435546875
ell 939, elapsed: 0.00029587745666503906
ell 938, elapsed: 0.0002951622009277344
ell 937, elapsed: 0.0002880096435546875
ell 936, elapsed: 0.00029397010803222656
ell 935, elapsed: 0.00029277801513671875
ell 934, elapsed: 0.00029397010803222656
ell 933, elapsed: 0.00028395652770996094
ell 932, elapsed: 0.0002961158752441406
ell 931, elapsed: 0.0002970695495605469
ell 930, elapsed: 0.0002911090850830078
ell 929, elapsed: 0.00029587745666503906
ell 928, elapsed: 0.0002899169921875
ell 927, elapsed: 0.0003159046173095703
ell 926, elapsed: 0.00028896331787109375
ell 925, elapsed: 0.0002961158752441406
ell 924, elapsed: 0.0002949237823486328
ell 923, elapsed: 0.0002930164337158203
ell 922, elapsed: 0.0002949237823486328
ell 921, elapsed: 0.0002930164337158203
ell 920, elapsed: 0.0003159046173095703
ell 919, elapsed: 0.00029206275939941406
ell 918, elapsed: 0.00028586387634277344
ell 917, elapsed: 0.0002970695495605469
ell 916, elapsed: 0.00028395652770996094
ell 915, elapsed: 0.0002880096435546875
ell 914, elapsed: 0.00029206275939941406
ell 913, elapsed: 0.0002899169921875
ell 912, elapsed: 0.00029397010803222656
ell 911, elapsed: 0.0002918243408203125
ell 910, elapsed: 0.00029206275939941406
ell 909, elapsed: 0.0002970695495605469
ell 908, elapsed: 0.00026106834411621094
ell 907, elapsed: 0.0003418922424316406
ell 906, elapsed: 0.00029206275939941406
ell 905, elapsed: 0.00029587745666503906
ell 904, elapsed: 0.0002980232238769531
ell 903, elapsed: 0.00029015541076660156
ell 902, elapsed: 0.00029397010803222656
ell 901, elapsed: 0.00029206275939941406
ell 900, elapsed: 0.00029206275939941406
ell 899, elapsed: 0.0002961158752441406
ell 898, elapsed: 0.0002899169921875
ell 897, elapsed: 0.00030303001403808594
ell 896, elapsed: 0.0002930164337158203
ell 895, elapsed: 0.00030803680419921875
ell 894, elapsed: 0.00030803680419921875
ell 893, elapsed: 0.00029397010803222656
ell 892, elapsed: 0.0002989768981933594
ell 891, elapsed: 0.0002918243408203125
ell 890, elapsed: 0.0002989768981933594
ell 889, elapsed: 0.0002880096435546875
ell 888, elapsed: 0.0002930164337158203
ell 887, elapsed: 0.00029921531677246094
ell 886, elapsed: 0.0002899169921875
ell 885, elapsed: 0.0002989768981933594
ell 884, elapsed: 0.00029206275939941406
ell 883, elapsed: 0.00029015541076660156
ell 882, elapsed: 0.0003237724304199219
ell 881, elapsed: 0.00028896331787109375
ell 880, elapsed: 0.0002429485321044922
ell 879, elapsed: 0.00023508071899414062
ell 878, elapsed: 0.00023698806762695312
ell 877, elapsed: 0.00024008750915527344
ell 876, elapsed: 0.00023293495178222656
ell 875, elapsed: 0.00023889541625976562
ell 874, elapsed: 0.00023317337036132812
ell 873, elapsed: 0.0002319812774658203
ell 872, elapsed: 0.00023889541625976562
ell 871, elapsed: 0.00023293495178222656
ell 870, elapsed: 0.0002410411834716797
ell 869, elapsed: 0.00023412704467773438
ell 868, elapsed: 0.00023102760314941406
ell 867, elapsed: 0.00024199485778808594
ell 866, elapsed: 0.0002789497375488281
ell 865, elapsed: 0.00024008750915527344
ell 864, elapsed: 0.00023293495178222656
ell 863, elapsed: 0.00023293495178222656
ell 862, elapsed: 0.00023984909057617188
ell 861, elapsed: 0.0002319812774658203
ell 860, elapsed: 0.00024199485778808594
ell 859, elapsed: 0.0002338886260986328
ell 858, elapsed: 0.00023818016052246094
ell 857, elapsed: 0.00023412704467773438
ell 856, elapsed: 0.0002338886260986328
ell 855, elapsed: 0.0002410411834716797
ell 854, elapsed: 0.00023412704467773438
ell 853, elapsed: 0.00024199485778808594
ell 852, elapsed: 0.00023102760314941406
ell 851, elapsed: 0.00023698806762695312
ell 850, elapsed: 0.0002720355987548828
ell 849, elapsed: 0.00023698806762695312
ell 848, elapsed: 0.00024008750915527344
ell 847, elapsed: 0.00023603439331054688
ell 846, elapsed: 0.00023794174194335938
ell 845, elapsed: 0.00025081634521484375
ell 844, elapsed: 0.00023794174194335938
ell 843, elapsed: 0.00024509429931640625
ell 842, elapsed: 0.0002319812774658203
ell 841, elapsed: 0.00023508071899414062
ell 840, elapsed: 0.00023984909057617188
ell 839, elapsed: 0.00023603439331054688
ell 838, elapsed: 0.00024008750915527344
ell 837, elapsed: 0.00023412704467773438
ell 836, elapsed: 0.0002338886260986328
ell 835, elapsed: 0.00028204917907714844
ell 834, elapsed: 0.0002391338348388672
ell 833, elapsed: 0.0002410411834716797
ell 832, elapsed: 0.00023102760314941406
ell 831, elapsed: 0.00023102760314941406
ell 830, elapsed: 0.00023984909057617188
ell 829, elapsed: 0.0002319812774658203
ell 828, elapsed: 0.00024199485778808594
ell 827, elapsed: 0.00023293495178222656
ell 826, elapsed: 0.0002391338348388672
ell 825, elapsed: 0.00023293495178222656
ell 824, elapsed: 0.00023293495178222656
ell 823, elapsed: 0.00023889541625976562
ell 822, elapsed: 0.0002338886260986328
ell 821, elapsed: 0.0002391338348388672
ell 820, elapsed: 0.00023293495178222656
ell 819, elapsed: 0.00024580955505371094
ell 818, elapsed: 0.0002410411834716797
ell 817, elapsed: 0.00023293495178222656
ell 816, elapsed: 0.0002410411834716797
ell 815, elapsed: 0.00023221969604492188
ell 814, elapsed: 0.0002338886260986328
ell 813, elapsed: 0.0002391338348388672
ell 812, elapsed: 0.0002319812774658203
ell 811, elapsed: 0.00023603439331054688
ell 810, elapsed: 0.00023698806762695312
ell 809, elapsed: 0.0002319812774658203
ell 808, elapsed: 0.0002410411834716797
ell 807, elapsed: 0.0002319812774658203
ell 806, elapsed: 0.0002410411834716797
ell 805, elapsed: 0.00023412704467773438
ell 804, elapsed: 0.00023293495178222656
ell 803, elapsed: 0.0003018379211425781
ell 802, elapsed: 0.0002338886260986328
ell 801, elapsed: 0.00023984909057617188
ell 800, elapsed: 0.00023412704467773438
ell 799, elapsed: 0.00024008750915527344
ell 798, elapsed: 0.00023984909057617188
ell 797, elapsed: 0.00023221969604492188
ell 796, elapsed: 0.00023984909057617188
ell 795, elapsed: 0.00023484230041503906
ell 794, elapsed: 0.000247955322265625
ell 793, elapsed: 0.00023698806762695312
ell 792, elapsed: 0.0002319812774658203
ell 791, elapsed: 0.00023889541625976562
ell 790, elapsed: 0.0002338886260986328
ell 789, elapsed: 0.0002410411834716797
ell 788, elapsed: 0.00023508071899414062
ell 787, elapsed: 0.00028896331787109375
ell 786, elapsed: 0.0002849102020263672
ell 785, elapsed: 0.0002758502960205078
ell 784, elapsed: 0.00027489662170410156
ell 783, elapsed: 0.00027108192443847656
ell 782, elapsed: 0.0002689361572265625
ell 781, elapsed: 0.00027680397033691406
ell 780, elapsed: 0.000270843505859375
ell 779, elapsed: 0.0002779960632324219
ell 778, elapsed: 0.000270843505859375
ell 777, elapsed: 0.0002689361572265625
ell 776, elapsed: 0.0002989768981933594
ell 775, elapsed: 0.0002849102020263672
ell 774, elapsed: 0.00028896331787109375
ell 773, elapsed: 0.0002980232238769531
ell 772, elapsed: 0.00028395652770996094
ell 771, elapsed: 0.00029587745666503906
ell 770, elapsed: 0.0002911090850830078
ell 769, elapsed: 0.00028896331787109375
ell 768, elapsed: 0.0002880096435546875
ell 767, elapsed: 0.0002899169921875
ell 766, elapsed: 0.000286102294921875
ell 765, elapsed: 0.000286102294921875
ell 764, elapsed: 0.0002911090850830078
ell 763, elapsed: 0.0002961158752441406
ell 762, elapsed: 0.0002970695495605469
ell 761, elapsed: 0.0002899169921875
ell 760, elapsed: 0.0003211498260498047
ell 759, elapsed: 0.0002930164337158203
ell 758, elapsed: 0.00029015541076660156
ell 757, elapsed: 0.0002930164337158203
ell 756, elapsed: 0.0002899169921875
ell 755, elapsed: 0.00028896331787109375
ell 754, elapsed: 0.0002989768981933594
ell 753, elapsed: 0.0002880096435546875
ell 752, elapsed: 0.0002949237823486328
ell 751, elapsed: 0.0002880096435546875
ell 750, elapsed: 0.0002899169921875
ell 749, elapsed: 0.00029397010803222656
ell 748, elapsed: 0.0002968311309814453
ell 747, elapsed: 0.0003151893615722656
ell 746, elapsed: 0.00028896331787109375
ell 745, elapsed: 0.00029206275939941406
ell 744, elapsed: 0.0002999305725097656
ell 743, elapsed: 0.0002892017364501953
ell 742, elapsed: 0.0002949237823486328
ell 741, elapsed: 0.000286102294921875
ell 740, elapsed: 0.00028896331787109375
ell 739, elapsed: 0.0002930164337158203
ell 738, elapsed: 0.000286102294921875
ell 737, elapsed: 0.0003018379211425781
ell 736, elapsed: 0.00028896331787109375
ell 735, elapsed: 0.00029397010803222656
ell 734, elapsed: 0.00028896331787109375
ell 733, elapsed: 0.0002880096435546875
ell 732, elapsed: 0.00030303001403808594
ell 731, elapsed: 0.00028705596923828125
ell 730, elapsed: 0.0002949237823486328
ell 729, elapsed: 0.0002911090850830078
ell 728, elapsed: 0.0002880096435546875
ell 727, elapsed: 0.00029587745666503906
ell 726, elapsed: 0.0002880096435546875
ell 725, elapsed: 0.0002961158752441406
ell 724, elapsed: 0.000331878662109375
ell 723, elapsed: 0.0003299713134765625
ell 722, elapsed: 0.00039196014404296875
ell 721, elapsed: 0.000308990478515625
ell 720, elapsed: 0.0003139972686767578
ell 719, elapsed: 0.0003180503845214844
ell 718, elapsed: 0.00031304359436035156
ell 717, elapsed: 0.00032401084899902344
ell 716, elapsed: 0.0003159046173095703
ell 715, elapsed: 0.0003161430358886719
ell 714, elapsed: 0.0003120899200439453
ell 713, elapsed: 0.0003228187561035156
ell 712, elapsed: 0.0003159046173095703
ell 711, elapsed: 0.00032806396484375
ell 710, elapsed: 0.0003199577331542969
ell 709, elapsed: 0.0003211498260498047
ell 708, elapsed: 0.0003159046173095703
ell 707, elapsed: 0.0003139972686767578
ell 706, elapsed: 0.00031685829162597656
ell 705, elapsed: 0.0003180503845214844
ell 704, elapsed: 0.0003020763397216797
ell 703, elapsed: 0.0003161430358886719
ell 702, elapsed: 0.00030303001403808594
ell 701, elapsed: 0.0002899169921875
ell 700, elapsed: 0.0002980232238769531
ell 699, elapsed: 0.00028705596923828125
ell 698, elapsed: 0.0002999305725097656
ell 697, elapsed: 0.00028896331787109375
ell 696, elapsed: 0.00029087066650390625
ell 695, elapsed: 0.00030803680419921875
ell 694, elapsed: 0.0002980232238769531
ell 693, elapsed: 0.0002970695495605469
ell 692, elapsed: 0.00028896331787109375
ell 691, elapsed: 0.0002899169921875
ell 690, elapsed: 0.00030517578125
ell 689, elapsed: 0.0002989768981933594
ell 688, elapsed: 0.0002980232238769531
ell 687, elapsed: 0.0002880096435546875
ell 686, elapsed: 0.0003199577331542969
ell 685, elapsed: 0.00030493736267089844
ell 684, elapsed: 0.00028705596923828125
ell 683, elapsed: 0.0002930164337158203
ell 682, elapsed: 0.00030303001403808594
ell 681, elapsed: 0.0002951622009277344
ell 680, elapsed: 0.0002930164337158203
ell 679, elapsed: 0.0002849102020263672
ell 678, elapsed: 0.00030517578125
ell 677, elapsed: 0.00029087066650390625
ell 676, elapsed: 0.0002930164337158203
ell 675, elapsed: 0.00028586387634277344
ell 674, elapsed: 0.0002880096435546875
ell 673, elapsed: 0.00032591819763183594
ell 672, elapsed: 0.00029397010803222656
ell 671, elapsed: 0.00029397010803222656
ell 670, elapsed: 0.00028395652770996094
ell 669, elapsed: 0.0003008842468261719
ell 668, elapsed: 0.00029206275939941406
ell 667, elapsed: 0.00028705596923828125
ell 666, elapsed: 0.0002951622009277344
ell 665, elapsed: 0.000286102294921875
ell 664, elapsed: 0.0002880096435546875
ell 663, elapsed: 0.0002970695495605469
ell 662, elapsed: 0.0002849102020263672
ell 661, elapsed: 0.00029206275939941406
ell 660, elapsed: 0.0003387928009033203
ell 659, elapsed: 0.0002880096435546875
ell 658, elapsed: 0.00029087066650390625
ell 657, elapsed: 0.0008449554443359375
ell 656, elapsed: 0.0002810955047607422
ell 655, elapsed: 0.00024008750915527344
ell 654, elapsed: 0.0004229545593261719
ell 653, elapsed: 0.000244140625
ell 652, elapsed: 0.00024199485778808594
ell 651, elapsed: 0.0009229183197021484
ell 650, elapsed: 0.00023508071899414062
ell 649, elapsed: 0.00024008750915527344
ell 648, elapsed: 0.000392913818359375
ell 647, elapsed: 0.00023698806762695312
ell 646, elapsed: 0.0002410411834716797
ell 645, elapsed: 0.0002319812774658203
ell 644, elapsed: 0.00025010108947753906
ell 643, elapsed: 0.00023508071899414062
ell 642, elapsed: 0.00023293495178222656
ell 641, elapsed: 0.00024008750915527344
ell 640, elapsed: 0.0002338886260986328
ell 639, elapsed: 0.00024390220642089844
ell 638, elapsed: 0.0002319812774658203
ell 637, elapsed: 0.0002338886260986328
ell 636, elapsed: 0.00026106834411621094
ell 635, elapsed: 0.00023508071899414062
ell 634, elapsed: 0.0002429485321044922
ell 633, elapsed: 0.00023293495178222656
ell 632, elapsed: 0.00023102760314941406
ell 631, elapsed: 0.000244140625
ell 630, elapsed: 0.00023293495178222656
ell 629, elapsed: 0.0002448558807373047
ell 628, elapsed: 0.00023293495178222656
ell 627, elapsed: 0.00023317337036132812
ell 626, elapsed: 0.00024199485778808594
ell 625, elapsed: 0.00023102760314941406
ell 624, elapsed: 0.0002391338348388672
ell 623, elapsed: 0.00023221969604492188
ell 622, elapsed: 0.0002300739288330078
ell 621, elapsed: 0.00023889541625976562
ell 620, elapsed: 0.00025200843811035156
ell 619, elapsed: 0.0002429485321044922
ell 618, elapsed: 0.00022912025451660156
ell 617, elapsed: 0.00023102760314941406
ell 616, elapsed: 0.0002288818359375
ell 615, elapsed: 0.00023102760314941406
ell 614, elapsed: 0.00023794174194335938
ell 613, elapsed: 0.0002269744873046875
ell 612, elapsed: 0.00023794174194335938
ell 611, elapsed: 0.0002300739288330078
ell 610, elapsed: 0.0002269744873046875
ell 609, elapsed: 0.00023508071899414062
ell 608, elapsed: 0.00022792816162109375
ell 607, elapsed: 0.00023412704467773438
ell 606, elapsed: 0.0002257823944091797
ell 605, elapsed: 0.00022602081298828125
ell 604, elapsed: 0.00023484230041503906
ell 603, elapsed: 0.00023603439331054688
ell 602, elapsed: 0.0002338886260986328
ell 601, elapsed: 0.00022602081298828125
ell 600, elapsed: 0.0002231597900390625
ell 599, elapsed: 0.00023603439331054688
ell 598, elapsed: 0.00022602081298828125
ell 597, elapsed: 0.0002338886260986328
ell 596, elapsed: 0.00022482872009277344
ell 595, elapsed: 0.00022602081298828125
ell 594, elapsed: 0.0002410411834716797
ell 593, elapsed: 0.0002288818359375
ell 592, elapsed: 0.00023603439331054688
ell 591, elapsed: 0.0002281665802001953
ell 590, elapsed: 0.000225067138671875
ell 589, elapsed: 0.00023508071899414062
ell 588, elapsed: 0.00022792816162109375
ell 587, elapsed: 0.0002961158752441406
ell 586, elapsed: 0.0002269744873046875
ell 585, elapsed: 0.00023818016052246094
ell 584, elapsed: 0.0002269744873046875
ell 583, elapsed: 0.0002281665802001953
ell 582, elapsed: 0.00023412704467773438
ell 581, elapsed: 0.0002281665802001953
ell 580, elapsed: 0.0002391338348388672
ell 579, elapsed: 0.00022792816162109375
ell 578, elapsed: 0.00022792816162109375
ell 577, elapsed: 0.0002319812774658203
ell 576, elapsed: 0.00022983551025390625
ell 575, elapsed: 0.0002319812774658203
ell 574, elapsed: 0.00023984909057617188
ell 573, elapsed: 0.00022983551025390625
ell 572, elapsed: 0.00023794174194335938
ell 571, elapsed: 0.00024509429931640625
ell 570, elapsed: 0.00023889541625976562
ell 569, elapsed: 0.0002300739288330078
ell 568, elapsed: 0.0002300739288330078
ell 567, elapsed: 0.00023698806762695312
ell 566, elapsed: 0.00023102760314941406
ell 565, elapsed: 0.00023508071899414062
ell 564, elapsed: 0.00023293495178222656
ell 563, elapsed: 0.00023102760314941406
ell 562, elapsed: 0.0002410411834716797
ell 561, elapsed: 0.00022912025451660156
ell 560, elapsed: 0.00023794174194335938
ell 559, elapsed: 0.0002288818359375
ell 558, elapsed: 0.00024080276489257812
ell 557, elapsed: 0.0002288818359375
ell 556, elapsed: 0.0002288818359375
ell 555, elapsed: 0.00023412704467773438
ell 554, elapsed: 0.00023984909057617188
ell 553, elapsed: 0.00023412704467773438
ell 552, elapsed: 0.00022792816162109375
ell 551, elapsed: 0.00022912025451660156
ell 550, elapsed: 0.00023508071899414062
ell 549, elapsed: 0.0002269744873046875
ell 548, elapsed: 0.0002319812774658203
ell 547, elapsed: 0.00022912025451660156
ell 546, elapsed: 0.000225067138671875
ell 545, elapsed: 0.00023293495178222656
ell 544, elapsed: 0.00022602081298828125
ell 543, elapsed: 0.00023508071899414062
ell 542, elapsed: 0.000225067138671875
ell 541, elapsed: 0.0002269744873046875
ell 540, elapsed: 0.0002288818359375
ell 539, elapsed: 0.0002288818359375
ell 538, elapsed: 0.00025177001953125
ell 537, elapsed: 0.0002288818359375
ell 536, elapsed: 0.000225067138671875
ell 535, elapsed: 0.0002319812774658203
ell 534, elapsed: 0.0002269744873046875
ell 533, elapsed: 0.00023293495178222656
ell 532, elapsed: 0.00022602081298828125
ell 531, elapsed: 0.00022602081298828125
ell 530, elapsed: 0.0002319812774658203
ell 529, elapsed: 0.000225067138671875
ell 528, elapsed: 0.0002338886260986328
ell 527, elapsed: 0.0002269744873046875
ell 526, elapsed: 0.0002319812774658203
ell 525, elapsed: 0.00022792816162109375
ell 524, elapsed: 0.00022721290588378906
ell 523, elapsed: 0.00023293495178222656
ell 522, elapsed: 0.00022602081298828125
ell 521, elapsed: 0.0002460479736328125
ell 520, elapsed: 0.00022602081298828125
ell 519, elapsed: 0.00022602081298828125
ell 518, elapsed: 0.00023293495178222656
ell 517, elapsed: 0.0002288818359375
ell 516, elapsed: 0.0002319812774658203
ell 515, elapsed: 0.00022292137145996094
ell 514, elapsed: 0.00022411346435546875
ell 513, elapsed: 0.0002319812774658203
ell 512, elapsed: 0.0002319812774658203
ell 511, elapsed: 0.00023102760314941406
ell 510, elapsed: 0.000225067138671875
ell 509, elapsed: 0.000225067138671875
ell 508, elapsed: 0.00023102760314941406
ell 507, elapsed: 0.00022721290588378906
ell 506, elapsed: 0.0002319812774658203
ell 505, elapsed: 0.00028204917907714844
ell 504, elapsed: 0.00022792816162109375
ell 503, elapsed: 0.00023293495178222656
ell 502, elapsed: 0.0002269744873046875
ell 501, elapsed: 0.0002319812774658203
ell 500, elapsed: 0.0002238750457763672
ell 499, elapsed: 0.0002300739288330078
ell 498, elapsed: 0.0002319812774658203
ell 497, elapsed: 0.0002281665802001953
ell 496, elapsed: 0.00023293495178222656
ell 495, elapsed: 0.0002269744873046875
ell 494, elapsed: 0.0002319812774658203
ell 493, elapsed: 0.00022792816162109375
ell 492, elapsed: 0.0002281665802001953
ell 491, elapsed: 0.00023293495178222656
ell 490, elapsed: 0.00022482872009277344
ell 489, elapsed: 0.00023293495178222656
ell 488, elapsed: 0.00024318695068359375
ell 487, elapsed: 0.00022411346435546875
ell 486, elapsed: 0.00023508071899414062
ell 485, elapsed: 0.00022602081298828125
ell 484, elapsed: 0.00023698806762695312
ell 483, elapsed: 0.00022602081298828125
ell 482, elapsed: 0.00022602081298828125
ell 481, elapsed: 0.0002307891845703125
ell 480, elapsed: 0.000225067138671875
ell 479, elapsed: 0.0002319812774658203
ell 478, elapsed: 0.00022602081298828125
ell 477, elapsed: 0.00022602081298828125
ell 476, elapsed: 0.00023484230041503906
ell 475, elapsed: 0.00022482872009277344
ell 474, elapsed: 0.00023317337036132812
ell 473, elapsed: 0.00022482872009277344
ell 472, elapsed: 0.00023889541625976562
ell 471, elapsed: 0.00024008750915527344
ell 470, elapsed: 0.00022220611572265625
ell 469, elapsed: 0.00023293495178222656
ell 468, elapsed: 0.0002231597900390625
ell 467, elapsed: 0.0002338886260986328
ell 466, elapsed: 0.00022721290588378906
ell 465, elapsed: 0.00022602081298828125
ell 464, elapsed: 0.0002319812774658203
ell 463, elapsed: 0.0002307891845703125
ell 462, elapsed: 0.0002300739288330078
ell 461, elapsed: 0.00022602081298828125
ell 460, elapsed: 0.00022602081298828125
ell 459, elapsed: 0.0002319812774658203
ell 458, elapsed: 0.000225067138671875
ell 457, elapsed: 0.00023293495178222656
ell 456, elapsed: 0.00028514862060546875
ell 455, elapsed: 0.0002760887145996094
ell 454, elapsed: 0.0002760887145996094
ell 453, elapsed: 0.000270843505859375
ell 452, elapsed: 0.0002770423889160156
ell 451, elapsed: 0.0002751350402832031
ell 450, elapsed: 0.0002720355987548828
ell 449, elapsed: 0.00027298927307128906
ell 448, elapsed: 0.0002799034118652344
ell 447, elapsed: 0.00028014183044433594
ell 446, elapsed: 0.00028204917907714844
ell 445, elapsed: 0.0002779960632324219
ell 444, elapsed: 0.000286102294921875
ell 443, elapsed: 0.00027489662170410156
ell 442, elapsed: 0.00036597251892089844
ell 441, elapsed: 0.0003368854522705078
ell 440, elapsed: 0.00035691261291503906
ell 439, elapsed: 0.0003440380096435547
ell 438, elapsed: 0.00034499168395996094
ell 437, elapsed: 0.00035691261291503906
ell 436, elapsed: 0.00034308433532714844
ell 435, elapsed: 0.00035190582275390625
ell 434, elapsed: 0.00033783912658691406
ell 433, elapsed: 0.0003409385681152344
ell 432, elapsed: 0.0003941059112548828
ell 431, elapsed: 0.0003428459167480469
ell 430, elapsed: 0.000347137451171875
ell 429, elapsed: 0.00035500526428222656
ell 428, elapsed: 0.00034618377685546875
ell 427, elapsed: 0.0003349781036376953
ell 426, elapsed: 0.000331878662109375
ell 425, elapsed: 0.0003409385681152344
ell 424, elapsed: 0.0003368854522705078
ell 423, elapsed: 0.0003330707550048828
ell 422, elapsed: 0.0003771781921386719
ell 421, elapsed: 0.00035500526428222656
ell 420, elapsed: 0.0003669261932373047
ell 419, elapsed: 0.0003528594970703125
ell 418, elapsed: 0.0003540515899658203
ell 417, elapsed: 0.00036978721618652344
ell 416, elapsed: 0.0003459453582763672
ell 415, elapsed: 0.0003631114959716797
ell 414, elapsed: 0.0003581047058105469
ell 413, elapsed: 0.0003490447998046875
ell 412, elapsed: 0.0003750324249267578
ell 411, elapsed: 0.00035500526428222656
ell 410, elapsed: 0.00035500526428222656
ell 409, elapsed: 0.00034809112548828125
ell 408, elapsed: 0.00035190582275390625
ell 407, elapsed: 0.0003590583801269531
ell 406, elapsed: 0.0003509521484375
ell 405, elapsed: 0.00036597251892089844
ell 404, elapsed: 0.0003559589385986328
ell 403, elapsed: 0.0003581047058105469
ell 402, elapsed: 0.0003809928894042969
ell 401, elapsed: 0.0003559589385986328
ell 400, elapsed: 0.0003609657287597656
ell 399, elapsed: 0.00035309791564941406
ell 398, elapsed: 0.0003590583801269531
ell 397, elapsed: 0.00037097930908203125
ell 396, elapsed: 0.0003559589385986328
ell 395, elapsed: 0.0003669261932373047
ell 394, elapsed: 0.0003490447998046875
ell 393, elapsed: 0.00034999847412109375
ell 392, elapsed: 0.00035500526428222656
ell 391, elapsed: 0.0003559589385986328
ell 390, elapsed: 0.0003669261932373047
ell 389, elapsed: 0.0003521442413330078
ell 388, elapsed: 0.0003581047058105469
ell 387, elapsed: 0.0003559589385986328
ell 386, elapsed: 0.00035190582275390625
ell 385, elapsed: 0.0003628730773925781
ell 384, elapsed: 0.00035309791564941406
ell 383, elapsed: 0.000370025634765625
ell 382, elapsed: 0.000347137451171875
ell 381, elapsed: 0.00034999847412109375
ell 380, elapsed: 0.0003647804260253906
ell 379, elapsed: 0.0003390312194824219
ell 378, elapsed: 0.0003628730773925781
ell 377, elapsed: 0.00034117698669433594
ell 376, elapsed: 0.0003590583801269531
ell 375, elapsed: 0.00035309791564941406
ell 374, elapsed: 0.00035500526428222656
ell 373, elapsed: 0.00039005279541015625
ell 372, elapsed: 0.0003590583801269531
ell 371, elapsed: 0.0003600120544433594
ell 370, elapsed: 0.0003578662872314453
ell 369, elapsed: 0.0003769397735595703
ell 368, elapsed: 0.00036406517028808594
ell 367, elapsed: 0.0003509521484375
ell 366, elapsed: 0.0003628730773925781
ell 365, elapsed: 0.0003609657287597656
ell 364, elapsed: 0.0003609657287597656
ell 363, elapsed: 0.00038886070251464844
ell 362, elapsed: 0.0003731250762939453
ell 361, elapsed: 0.00037598609924316406
ell 360, elapsed: 0.00036597251892089844
ell 359, elapsed: 0.00035381317138671875
ell 358, elapsed: 0.00038313865661621094
ell 357, elapsed: 0.0003578662872314453
ell 356, elapsed: 0.0003819465637207031
ell 355, elapsed: 0.00036597251892089844
ell 354, elapsed: 0.00038814544677734375
ell 353, elapsed: 0.000370025634765625
ell 352, elapsed: 0.0003612041473388672
ell 351, elapsed: 0.00037598609924316406
ell 350, elapsed: 0.0003581047058105469
ell 349, elapsed: 0.00036787986755371094
ell 348, elapsed: 0.00034999847412109375
ell 347, elapsed: 0.0003650188446044922
ell 346, elapsed: 0.00036907196044921875
ell 345, elapsed: 0.0003628730773925781
ell 344, elapsed: 0.00039505958557128906
ell 343, elapsed: 0.0003631114959716797
ell 342, elapsed: 0.0003619194030761719
ell 341, elapsed: 0.0003681182861328125
ell 340, elapsed: 0.0003612041473388672
ell 339, elapsed: 0.0003619194030761719
ell 338, elapsed: 0.0003578662872314453
ell 337, elapsed: 0.0003581047058105469
ell 336, elapsed: 0.0003688335418701172
ell 335, elapsed: 0.00036406517028808594
ell 334, elapsed: 0.00035691261291503906
ell 333, elapsed: 0.0003590583801269531
ell 332, elapsed: 0.0003600120544433594
ell 331, elapsed: 0.0003619194030761719
ell 330, elapsed: 0.0003559589385986328
ell 329, elapsed: 0.0003650188446044922
ell 328, elapsed: 0.00033402442932128906
ell 327, elapsed: 0.00032591819763183594
ell 326, elapsed: 0.00033020973205566406
ell 325, elapsed: 0.0003020763397216797
ell 324, elapsed: 0.000347137451171875
ell 323, elapsed: 0.0002999305725097656
ell 322, elapsed: 0.0003008842468261719
ell 321, elapsed: 0.00031685829162597656
ell 320, elapsed: 0.00030493736267089844
ell 319, elapsed: 0.0003070831298828125
ell 318, elapsed: 0.0003108978271484375
ell 317, elapsed: 0.0003120899200439453
ell 316, elapsed: 0.0002999305725097656
ell 315, elapsed: 0.0002779960632324219
ell 314, elapsed: 0.00028586387634277344
ell 313, elapsed: 0.0002789497375488281
ell 312, elapsed: 0.00030493736267089844
ell 311, elapsed: 0.00023508071899414062
ell 310, elapsed: 0.00023603439331054688
ell 309, elapsed: 0.00024318695068359375
ell 308, elapsed: 0.00023889541625976562
ell 307, elapsed: 0.00024390220642089844
ell 306, elapsed: 0.00023603439331054688
ell 305, elapsed: 0.00023603439331054688
ell 304, elapsed: 0.00024199485778808594
ell 303, elapsed: 0.00023508071899414062
ell 302, elapsed: 0.0002429485321044922
ell 301, elapsed: 0.00023508071899414062
ell 300, elapsed: 0.00023603439331054688
ell 299, elapsed: 0.0002429485321044922
ell 298, elapsed: 0.00023698806762695312
ell 297, elapsed: 0.00024008750915527344
ell 296, elapsed: 0.00025200843811035156
ell 295, elapsed: 0.0002410411834716797
ell 294, elapsed: 0.000244140625
ell 293, elapsed: 0.0002429485321044922
ell 292, elapsed: 0.0002448558807373047
ell 291, elapsed: 0.00023603439331054688
ell 290, elapsed: 0.0002391338348388672
ell 289, elapsed: 0.00024199485778808594
ell 288, elapsed: 0.0002338886260986328
ell 287, elapsed: 0.00024700164794921875
ell 286, elapsed: 0.00023412704467773438
ell 285, elapsed: 0.00025200843811035156
ell 284, elapsed: 0.000244140625
ell 283, elapsed: 0.00023698806762695312
ell 282, elapsed: 0.00024509429931640625
ell 281, elapsed: 0.00023698806762695312
ell 280, elapsed: 0.00031185150146484375
ell 279, elapsed: 0.00023698806762695312
ell 278, elapsed: 0.00023508071899414062
ell 277, elapsed: 0.000244140625
ell 276, elapsed: 0.00023889541625976562
ell 275, elapsed: 0.00024199485778808594
ell 274, elapsed: 0.00023818016052246094
ell 273, elapsed: 0.00023508071899414062
ell 272, elapsed: 0.000247955322265625
ell 271, elapsed: 0.00023794174194335938
ell 270, elapsed: 0.00024008750915527344
ell 269, elapsed: 0.00023508071899414062
ell 268, elapsed: 0.0002357959747314453
ell 267, elapsed: 0.00023984909057617188
ell 266, elapsed: 0.00023412704467773438
ell 265, elapsed: 0.00026106834411621094
ell 264, elapsed: 0.00023794174194335938
ell 263, elapsed: 0.00023293495178222656
ell 262, elapsed: 0.00023698806762695312
ell 261, elapsed: 0.0002338886260986328
ell 260, elapsed: 0.00023794174194335938
ell 259, elapsed: 0.0002319812774658203
ell 258, elapsed: 0.00023698806762695312
ell 257, elapsed: 0.00023293495178222656
ell 256, elapsed: 0.00023317337036132812
ell 255, elapsed: 0.00023984909057617188
ell 254, elapsed: 0.0002338886260986328
ell 253, elapsed: 0.00023889541625976562
ell 252, elapsed: 0.00023293495178222656
ell 251, elapsed: 0.0002319812774658203
ell 250, elapsed: 0.00023984909057617188
ell 249, elapsed: 0.00024390220642089844
ell 248, elapsed: 0.00024199485778808594
ell 247, elapsed: 0.0002300739288330078
ell 246, elapsed: 0.00023293495178222656
ell 245, elapsed: 0.00023603439331054688
ell 244, elapsed: 0.00023102760314941406
ell 243, elapsed: 0.00023794174194335938
ell 242, elapsed: 0.00023293495178222656
ell 241, elapsed: 0.0002319812774658203
ell 240, elapsed: 0.0002410411834716797
ell 239, elapsed: 0.0002281665802001953
ell 238, elapsed: 0.00023603439331054688
ell 237, elapsed: 0.00022912025451660156
ell 236, elapsed: 0.00023698806762695312
ell 235, elapsed: 0.00023412704467773438
ell 234, elapsed: 0.0002300739288330078
ell 233, elapsed: 0.00023794174194335938
ell 232, elapsed: 0.0002601146697998047
ell 231, elapsed: 0.00022983551025390625
ell 230, elapsed: 0.0002357959747314453
ell 229, elapsed: 0.00022792816162109375
ell 228, elapsed: 0.0002391338348388672
ell 227, elapsed: 0.0002269744873046875
ell 226, elapsed: 0.0002338886260986328
ell 225, elapsed: 0.0002288818359375
ell 224, elapsed: 0.00022792816162109375
ell 223, elapsed: 0.00023508071899414062
ell 222, elapsed: 0.0002269744873046875
ell 221, elapsed: 0.00023603439331054688
ell 220, elapsed: 0.00022602081298828125
ell 219, elapsed: 0.0002300739288330078
ell 218, elapsed: 0.00023794174194335938
ell 217, elapsed: 0.00022602081298828125
ell 216, elapsed: 0.0002529621124267578
ell 215, elapsed: 0.0002319812774658203
ell 214, elapsed: 0.0002269744873046875
ell 213, elapsed: 0.00023484230041503906
ell 212, elapsed: 0.00022721290588378906
ell 211, elapsed: 0.00023508071899414062
ell 210, elapsed: 0.00022912025451660156
ell 209, elapsed: 0.0002288818359375
ell 208, elapsed: 0.00023508071899414062
ell 207, elapsed: 0.00023317337036132812
ell 206, elapsed: 0.00023698806762695312
ell 205, elapsed: 0.0002300739288330078
ell 204, elapsed: 0.00022602081298828125
ell 203, elapsed: 0.00024008750915527344
ell 202, elapsed: 0.00022602081298828125
ell 201, elapsed: 0.0002338886260986328
ell 200, elapsed: 0.0002639293670654297
ell 199, elapsed: 0.0002300739288330078
ell 198, elapsed: 0.0002288818359375
ell 197, elapsed: 0.0002281665802001953
ell 196, elapsed: 0.00023484230041503906
ell 195, elapsed: 0.0002338886260986328
ell 194, elapsed: 0.00023317337036132812
ell 193, elapsed: 0.00022602081298828125
ell 192, elapsed: 0.00022912025451660156
ell 191, elapsed: 0.0002319812774658203
ell 190, elapsed: 0.0002288818359375
ell 189, elapsed: 0.0002307891845703125
ell 188, elapsed: 0.00022983551025390625
ell 187, elapsed: 0.00023102760314941406
ell 186, elapsed: 0.00023508071899414062
ell 185, elapsed: 0.00023102760314941406
ell 184, elapsed: 0.00023603439331054688
ell 183, elapsed: 0.00026607513427734375
ell 182, elapsed: 0.0002300739288330078
ell 181, elapsed: 0.00023484230041503906
ell 180, elapsed: 0.0002300739288330078
ell 179, elapsed: 0.00023102760314941406
ell 178, elapsed: 0.0002300739288330078
ell 177, elapsed: 0.00023102760314941406
ell 176, elapsed: 0.00023508071899414062
ell 175, elapsed: 0.00022792816162109375
ell 174, elapsed: 0.00023698806762695312
ell 173, elapsed: 0.0002300739288330078
ell 172, elapsed: 0.0002319812774658203
ell 171, elapsed: 0.0002338886260986328
ell 170, elapsed: 0.00023102760314941406
ell 169, elapsed: 0.00023412704467773438
ell 168, elapsed: 0.00022792816162109375
ell 167, elapsed: 0.0002560615539550781
ell 166, elapsed: 0.00023889541625976562
ell 165, elapsed: 0.00023317337036132812
ell 164, elapsed: 0.00023794174194335938
ell 163, elapsed: 0.00023102760314941406
ell 162, elapsed: 0.00023818016052246094
ell 161, elapsed: 0.0002319812774658203
ell 160, elapsed: 0.00023317337036132812
ell 159, elapsed: 0.00023889541625976562
ell 158, elapsed: 0.00022792816162109375
ell 157, elapsed: 0.00023794174194335938
ell 156, elapsed: 0.0002288818359375
ell 155, elapsed: 0.0002307891845703125
ell 154, elapsed: 0.0002372264862060547
ell 153, elapsed: 0.00022983551025390625
ell 152, elapsed: 0.0002357959747314453
ell 151, elapsed: 0.000270843505859375
ell 150, elapsed: 0.00023508071899414062
ell 149, elapsed: 0.0002422332763671875
ell 148, elapsed: 0.0002338886260986328
ell 147, elapsed: 0.0002429485321044922
ell 146, elapsed: 0.00022983551025390625
ell 145, elapsed: 0.0002281665802001953
ell 144, elapsed: 0.00024390220642089844
ell 143, elapsed: 0.0002300739288330078
ell 142, elapsed: 0.00024700164794921875
ell 141, elapsed: 0.00023317337036132812
ell 140, elapsed: 0.00023293495178222656
ell 139, elapsed: 0.0002429485321044922
ell 138, elapsed: 0.00023102760314941406
ell 137, elapsed: 0.00024008750915527344
ell 136, elapsed: 0.0002288818359375
ell 135, elapsed: 0.0002560615539550781
ell 134, elapsed: 0.0002319812774658203
ell 133, elapsed: 0.00023102760314941406
ell 132, elapsed: 0.00024318695068359375
ell 131, elapsed: 0.0002319812774658203
ell 130, elapsed: 0.00024700164794921875
ell 129, elapsed: 0.00023293495178222656
ell 128, elapsed: 0.00022983551025390625
ell 127, elapsed: 0.0002429485321044922
ell 126, elapsed: 0.00023508071899414062
ell 125, elapsed: 0.0002410411834716797
ell 124, elapsed: 0.00023484230041503906
ell 123, elapsed: 0.0002300739288330078
ell 122, elapsed: 0.00023818016052246094
ell 121, elapsed: 0.0002288818359375
ell 120, elapsed: 0.00024199485778808594
ell 119, elapsed: 0.0004107952117919922
ell 118, elapsed: 0.0003490447998046875
ell 117, elapsed: 0.00037288665771484375
ell 116, elapsed: 0.0003578662872314453
ell 115, elapsed: 0.0003650188446044922
ell 114, elapsed: 0.0003731250762939453
ell 113, elapsed: 0.0003540515899658203
ell 112, elapsed: 0.00034117698669433594
ell 111, elapsed: 0.00035691261291503906
ell 110, elapsed: 0.00037407875061035156
ell 109, elapsed: 0.0003218650817871094
ell 108, elapsed: 0.00032806396484375
ell 107, elapsed: 0.00030303001403808594
ell 106, elapsed: 0.00030112266540527344
ell 105, elapsed: 0.0003070831298828125
ell 104, elapsed: 0.0003020763397216797
ell 103, elapsed: 0.0003170967102050781
ell 102, elapsed: 0.0002989768981933594
ell 101, elapsed: 0.0002989768981933594
ell 100, elapsed: 0.0003161430358886719
ell 99, elapsed: 0.00030493736267089844
ell 98, elapsed: 0.00030803680419921875
ell 97, elapsed: 0.00031113624572753906
ell 96, elapsed: 0.00030303001403808594
ell 95, elapsed: 0.0003120899200439453
ell 94, elapsed: 0.0003020763397216797
ell 93, elapsed: 0.0003120899200439453
ell 92, elapsed: 0.0002999305725097656
ell 91, elapsed: 0.0003120899200439453
ell 90, elapsed: 0.0003120899200439453
ell 89, elapsed: 0.0003039836883544922
ell 88, elapsed: 0.00033092498779296875
ell 87, elapsed: 0.000308990478515625
ell 86, elapsed: 0.0003039836883544922
ell 85, elapsed: 0.0003521442413330078
ell 84, elapsed: 0.0003139972686767578
ell 83, elapsed: 0.0003199577331542969
ell 82, elapsed: 0.0003058910369873047
ell 81, elapsed: 0.00031495094299316406
ell 80, elapsed: 0.0003190040588378906
ell 79, elapsed: 0.00031495094299316406
ell 78, elapsed: 0.0003159046173095703
ell 77, elapsed: 0.0003058910369873047
ell 76, elapsed: 0.0003159046173095703
ell 75, elapsed: 0.0003039836883544922
ell 74, elapsed: 0.00032806396484375
ell 73, elapsed: 0.00032210350036621094
ell 72, elapsed: 0.0003070831298828125
ell 71, elapsed: 0.00033211708068847656
ell 70, elapsed: 0.0004940032958984375
ell 69, elapsed: 0.00030994415283203125
ell 68, elapsed: 0.00032401084899902344
ell 67, elapsed: 0.00031185150146484375
ell 66, elapsed: 0.0003170967102050781
ell 65, elapsed: 0.00030994415283203125
ell 64, elapsed: 0.0003108978271484375
ell 63, elapsed: 0.00031495094299316406
ell 62, elapsed: 0.0003139972686767578
ell 61, elapsed: 0.0003218650817871094
ell 60, elapsed: 0.00030303001403808594
ell 59, elapsed: 0.00030803680419921875
ell 58, elapsed: 0.0003299713134765625
ell 57, elapsed: 0.0003070831298828125
ell 56, elapsed: 0.0003159046173095703
ell 55, elapsed: 0.00031495094299316406
ell 54, elapsed: 0.0003151893615722656
ell 53, elapsed: 0.00048089027404785156
ell 52, elapsed: 0.00030994415283203125
ell 51, elapsed: 0.00037407875061035156
ell 50, elapsed: 0.000308990478515625
ell 49, elapsed: 0.00030612945556640625
ell 48, elapsed: 0.0003211498260498047
ell 47, elapsed: 0.0003218650817871094
ell 46, elapsed: 0.0003190040588378906
ell 45, elapsed: 0.00030684471130371094
ell 44, elapsed: 0.0003299713134765625
ell 43, elapsed: 0.00030684471130371094
ell 42, elapsed: 0.00032210350036621094
ell 41, elapsed: 0.0003211498260498047
ell 40, elapsed: 0.00033092498779296875
ell 39, elapsed: 0.0003228187561035156
ell 38, elapsed: 0.0003101825714111328
ell 37, elapsed: 0.00030994415283203125
ell 36, elapsed: 0.0003190040588378906
ell 35, elapsed: 0.00031495094299316406
ell 34, elapsed: 0.0003230571746826172
ell 33, elapsed: 0.0003218650817871094
ell 32, elapsed: 0.00031185150146484375
ell 31, elapsed: 0.0003209114074707031
ell 30, elapsed: 0.0003170967102050781
ell 29, elapsed: 0.0003180503845214844
ell 28, elapsed: 0.0003540515899658203
ell 27, elapsed: 0.0003199577331542969
ell 26, elapsed: 0.0003230571746826172
ell 25, elapsed: 0.00031304359436035156
ell 24, elapsed: 0.00031685829162597656
ell 23, elapsed: 0.0003170967102050781
ell 22, elapsed: 0.00031113624572753906
ell 21, elapsed: 0.0003199577331542969
ell 20, elapsed: 0.00031304359436035156
ell 19, elapsed: 0.0003299713134765625
ell 18, elapsed: 0.00030994415283203125
ell 17, elapsed: 0.0003218650817871094
ell 16, elapsed: 0.00033593177795410156
ell 15, elapsed: 0.00030684471130371094
ell 14, elapsed: 0.0003170967102050781
ell 13, elapsed: 0.0003190040588378906
ell 12, elapsed: 0.0003170967102050781
ell 11, elapsed: 0.00031185150146484375
ell 10, elapsed: 0.0003139972686767578
ell 9, elapsed: 0.0003209114074707031
ell 8, elapsed: 0.000308990478515625
ell 7, elapsed: 0.0003209114074707031
ell 6, elapsed: 0.0003108978271484375
ell 5, elapsed: 0.0003108978271484375
ell 4, elapsed: 0.0003190040588378906
ell 3, elapsed: 0.00030994415283203125
ell 2, elapsed: 0.00031495094299316406
ell 1, elapsed: 0.00030994415283203125
ell 0, elapsed: 0.0002892017364501953
  0.392091 seconds (46.03 k allocations: 3.091 MiB, 6.65% compilation time)
elapsed: 0.0003650188446044922
step:          0.045078 sec (0 allocations: 0 byte, 0.0% gc time)
swapping:      0.000385 sec (0 allocations: 0 byte, 0.0% gc time)
calc_Mellell!: 0.004709 sec (0 allocations: 0 byte, 0.0% gc time)
  t0 :  0.001043 sec (0 allocations: 0 byte, 0.0% gc time)
  tm2 : 0.067077 sec (0 allocations: 0 byte, 0.0% gc time)
  tm2s: 0.001173 sec (0 allocations: 0 byte, 0.0% gc time)
  tm4 : 0.150809 sec (0 allocations: 0 byte, 0.0% gc time)
  tp2 : 0.0 sec (0 allocations: 0 byte, 0.0% gc time)
  tp2s: 0.0 sec (0 allocations: 0 byte, 0.0% gc time)
  tp4 : 0.0 sec (0 allocations: 0 byte, 0.0% gc time)
calc_wtdll!:   0.248267 sec (9.9 k allocations: 1.047 MB, 0.0% gc time)
calc_wljj!:    0.018828 sec (689 allocations: 10.766 KB, 0.0% gc time)
mult_prefac!:  0.0 sec (0 allocations: 0 byte, 0.0% gc time)
convert:       0.0 sec (0 allocations: 0 byte, 0.0% gc time)
write:         0.029366 sec (0 allocations: 0 byte, 0.0% gc time)
test_rand_2f1: 0.0 sec (0 allocations: 0 byte, 0.0% gc time)
Closing outfile out/Ml21-cache.bin...   0.000010 seconds
  0.000219 seconds (36 allocations: 27.953 KiB)
make_phi():   0.000982 seconds (8.18 k allocations: 237.844 KiB)
  0.180050 seconds (141.90 k allocations: 3.483 MiB)
tskip:       0.000626 sec (0 allocations: 0 byte, 0.0% gc time)
tread:       0.022626 sec (17 allocations: 10.641 KB, 0.0% gc time)
tmultphi:    0.008348 sec (0 allocations: 0 byte, 0.0% gc time)
tbrfft:      0.037717 sec (0 allocations: 0 byte, 0.0% gc time)
tmultprefac: 0.015339 sec (0 allocations: 0 byte, 0.0% gc time)
toutfunc:    0.091396 sec (127.507 k allocations: 2.312 MB, 0.0% gc time)
Testing R=1.0 ... passed
Calculating fmax: 
  dlrec    = 4
  dlrecRg1 = -4
  q=1.1, R=0.9:	  0.250297 seconds (105.72 k allocations: 15.273 MiB, 7.94% gc time)

  0.250491 seconds (105.78 k allocations: 15.307 MiB, 7.93% gc time)
ℓ = 1202
Δℓ = 4
ΔℓRg1 = -4
N = 1600
q = 1.1
kmin = 1.0e-5
kmax = 100000.00000000004
χ0 = 0.023029999999999995
RR = RR.tsv
ℓmax = ℓmax.bin
f21 = f21.bin
kmin = 1.0e-5
kmax = 100000.0
dlrec    = 4
dlrecRg1 = -4
Output size: 5741568 bytes = 0.005347251892089844 GiB
Output size: 51264 bytes = 4.774332046508789e-5 GiB
Reading 'out/F21EllCache'...   0.000824 seconds (197 allocations: 84.203 KiB)
ellmax: 1202
lmaxcache: 1202
fell[:,1,1] = ComplexF64[1.3482014726274674e-57 - 3.302141236118086e-73im, 1.357860004724329e-57 - 3.3257978169518355e-73im]
ell 1202, elapsed: 1.6927719116210938e-5
ell 1201, elapsed: 0.00027298927307128906
ell 1200, elapsed: 0.00025200843811035156
ell 1199, elapsed: 0.00025081634521484375
ell 1198, elapsed: 0.0002529621124267578
ell 1002, elapsed: 0.008033990859985352
ell 1001, elapsed: 0.00028896331787109375
ell 1000, elapsed: 0.00024890899658203125
ell 999, elapsed: 0.00024700164794921875
ell 998, elapsed: 0.00024700164794921875
ell 902, elapsed: 0.0037338733673095703
ell 901, elapsed: 0.0002129077911376953
ell 900, elapsed: 0.00021505355834960938
ell 899, elapsed: 0.00021195411682128906
ell 898, elapsed: 0.00021195411682128906
ell 802, elapsed: 0.0037109851837158203
ell 801, elapsed: 0.0002110004425048828
ell 800, elapsed: 0.0002110004425048828
ell 799, elapsed: 0.0002090930938720703
ell 798, elapsed: 0.00020813941955566406
ell 702, elapsed: 0.003598928451538086
ell 701, elapsed: 0.00020599365234375
ell 700, elapsed: 0.00020599365234375
ell 699, elapsed: 0.00022101402282714844
ell 698, elapsed: 0.00020694732666015625
ell 602, elapsed: 0.0035381317138671875
ell 601, elapsed: 0.00021791458129882812
ell 600, elapsed: 0.00020503997802734375
ell 599, elapsed: 0.00020194053649902344
ell 598, elapsed: 0.0002028942108154297
ell 502, elapsed: 0.003625154495239258
ell 501, elapsed: 0.00020313262939453125
ell 500, elapsed: 0.0002028942108154297
ell 499, elapsed: 0.00020194053649902344
ell 498, elapsed: 0.0002040863037109375
ell 402, elapsed: 0.0035409927368164062
ell 401, elapsed: 0.00020313262939453125
ell 400, elapsed: 0.00021600723266601562
ell 399, elapsed: 0.00020503997802734375
ell 398, elapsed: 0.00020503997802734375
ell 302, elapsed: 0.003549814224243164
ell 301, elapsed: 0.0002028942108154297
ell 300, elapsed: 0.00020384788513183594
ell 299, elapsed: 0.00020313262939453125
ell 298, elapsed: 0.0002028942108154297
ell 202, elapsed: 0.0035669803619384766
ell 201, elapsed: 0.00020599365234375
ell 200, elapsed: 0.00020599365234375
ell 199, elapsed: 0.00020503997802734375
ell 198, elapsed: 0.0002040863037109375
ell 152, elapsed: 0.0018129348754882812
ell 151, elapsed: 0.0002040863037109375
ell 150, elapsed: 0.00020503997802734375
ell 149, elapsed: 0.00020384788513183594
ell 148, elapsed: 0.0002028942108154297
ell 127, elapsed: 0.0009281635284423828
ell 126, elapsed: 0.0002040863037109375
ell 125, elapsed: 0.0002040863037109375
ell 124, elapsed: 0.0002028942108154297
ell 123, elapsed: 0.00020313262939453125
ell 114, elapsed: 0.0005159378051757812
ell 113, elapsed: 0.00020503997802734375
ell 112, elapsed: 0.0002040863037109375
ell 111, elapsed: 0.00023102760314941406
ell 110, elapsed: 0.00020313262939453125
ell 102, elapsed: 0.0004849433898925781
ell 101, elapsed: 0.00020384788513183594
ell 100, elapsed: 0.00020384788513183594
ell 99, elapsed: 0.00020503997802734375
ell 98, elapsed: 0.0002040863037109375
ell 97, elapsed: 0.0002319812774658203
ell 96, elapsed: 0.00023984909057617188
ell 95, elapsed: 0.00023293495178222656
ell 94, elapsed: 0.0002319812774658203
ell 93, elapsed: 0.0002357959747314453
ell 92, elapsed: 0.00023102760314941406
ell 91, elapsed: 0.00023603439331054688
ell 90, elapsed: 0.00023293495178222656
ell 89, elapsed: 0.0002300739288330078
ell 88, elapsed: 0.0002460479736328125
ell 87, elapsed: 0.00023102760314941406
ell 86, elapsed: 0.00023698806762695312
ell 85, elapsed: 0.000270843505859375
ell 84, elapsed: 0.0003027915954589844
ell 83, elapsed: 0.00030517578125
ell 82, elapsed: 0.00029397010803222656
ell 81, elapsed: 0.00030493736267089844
ell 80, elapsed: 0.0002989768981933594
ell 79, elapsed: 0.0002970695495605469
ell 78, elapsed: 0.00030303001403808594
ell 77, elapsed: 0.0002930164337158203
ell 76, elapsed: 0.00032401084899902344
ell 75, elapsed: 0.00035309791564941406
ell 74, elapsed: 0.0002980232238769531
ell 73, elapsed: 0.00030994415283203125
ell 72, elapsed: 0.0003039836883544922
ell 71, elapsed: 0.00032401084899902344
ell 70, elapsed: 0.00030303001403808594
ell 69, elapsed: 0.00030112266540527344
ell 68, elapsed: 0.00030994415283203125
ell 67, elapsed: 0.0002980232238769531
ell 66, elapsed: 0.00031113624572753906
ell 65, elapsed: 0.0002930164337158203
ell 64, elapsed: 0.0002989768981933594
ell 63, elapsed: 0.0003368854522705078
ell 62, elapsed: 0.0002989768981933594
ell 61, elapsed: 0.0003039836883544922
ell 60, elapsed: 0.0002930164337158203
ell 59, elapsed: 0.0002968311309814453
ell 58, elapsed: 0.00030112266540527344
ell 57, elapsed: 0.00029397010803222656
ell 56, elapsed: 0.0003070831298828125
ell 55, elapsed: 0.0002949237823486328
ell 54, elapsed: 0.00029206275939941406
ell 53, elapsed: 0.00031495094299316406
ell 52, elapsed: 0.0002951622009277344
ell 51, elapsed: 0.00031304359436035156
ell 50, elapsed: 0.0003478527069091797
ell 49, elapsed: 0.00030994415283203125
ell 48, elapsed: 0.00029206275939941406
ell 47, elapsed: 0.0002951622009277344
ell 46, elapsed: 0.0003018379211425781
ell 45, elapsed: 0.00029397010803222656
ell 44, elapsed: 0.0003027915954589844
ell 43, elapsed: 0.0002930164337158203
ell 42, elapsed: 0.0002951622009277344
ell 41, elapsed: 0.0003027915954589844
ell 40, elapsed: 0.0003008842468261719
ell 39, elapsed: 0.00030493736267089844
ell 38, elapsed: 0.0003161430358886719
ell 37, elapsed: 0.00030803680419921875
ell 36, elapsed: 0.0003108978271484375
ell 35, elapsed: 0.0002970695495605469
ell 34, elapsed: 0.00030493736267089844
ell 33, elapsed: 0.0002970695495605469
ell 32, elapsed: 0.0002949237823486328
ell 31, elapsed: 0.00032401084899902344
ell 30, elapsed: 0.0002970695495605469
ell 29, elapsed: 0.0003139972686767578
ell 28, elapsed: 0.0002999305725097656
ell 27, elapsed: 0.0002942085266113281
ell 26, elapsed: 0.0003039836883544922
ell 25, elapsed: 0.00043702125549316406
ell 24, elapsed: 0.00031495094299316406
ell 23, elapsed: 0.00029587745666503906
ell 22, elapsed: 0.00029397010803222656
ell 21, elapsed: 0.0003039836883544922
ell 20, elapsed: 0.0002949237823486328
ell 19, elapsed: 0.0003180503845214844
ell 18, elapsed: 0.0002970695495605469
ell 17, elapsed: 0.0002968311309814453
ell 16, elapsed: 0.0003161430358886719
ell 15, elapsed: 0.0002980232238769531
ell 14, elapsed: 0.00031304359436035156
ell 13, elapsed: 0.0003459453582763672
ell 12, elapsed: 0.00030803680419921875
ell 11, elapsed: 0.00032591819763183594
ell 10, elapsed: 0.0003020763397216797
ell 9, elapsed: 0.00031304359436035156
ell 8, elapsed: 0.00030112266540527344
ell 7, elapsed: 0.000308990478515625
ell 6, elapsed: 0.0003120899200439453
ell 5, elapsed: 0.0003039836883544922
ell 4, elapsed: 0.00031685829162597656
ell 3, elapsed: 0.00030803680419921875
ell 2, elapsed: 0.00030803680419921875
ell 1, elapsed: 0.0003521442413330078
ell 0, elapsed: 0.00028896331787109375
  0.084526 seconds (11.51 k allocations: 719.594 KiB)
elapsed: 0.0003609657287597656
step:          0.042935 sec (0 allocations: 0 byte, 0.0% gc time)
swapping:      0.000209 sec (0 allocations: 0 byte, 0.0% gc time)
calc_Mellell!: 0.000632 sec (0 allocations: 0 byte, 0.0% gc time)
  t0 :  0.000164 sec (0 allocations: 0 byte, 0.0% gc time)
  tm2 : 0.009433 sec (0 allocations: 0 byte, 0.0% gc time)
  tm2s: 0.000165 sec (0 allocations: 0 byte, 0.0% gc time)
  tm4 : 0.021425 sec (0 allocations: 0 byte, 0.0% gc time)
  tp2 : 0.0 sec (0 allocations: 0 byte, 0.0% gc time)
  tp2s: 0.0 sec (0 allocations: 0 byte, 0.0% gc time)
  tp4 : 0.0 sec (0 allocations: 0 byte, 0.0% gc time)
calc_wtdll!:   0.031441 sec (1.344 k allocations: 147.0 KB, 0.0% gc time)
calc_wljj!:    0.001879 sec (6 allocations: 96 byte, 0.0% gc time)
mult_prefac!:  0.0 sec (0 allocations: 0 byte, 0.0% gc time)
convert:       0.0 sec (0 allocations: 0 byte, 0.0% gc time)
write:         0.002719 sec (0 allocations: 0 byte, 0.0% gc time)
test_rand_2f1: 0.0 sec (0 allocations: 0 byte, 0.0% gc time)
Closing outfile out/Ml21-cache.bin...   0.000009 seconds
  0.000260 seconds (36 allocations: 27.953 KiB)
make_phi():   0.001460 seconds (8.18 k allocations: 237.844 KiB)
  0.011724 seconds (11.65 k allocations: 308.688 KiB)
tskip:       1.3e-5 sec (0 allocations: 0 byte, 0.0% gc time)
tread:       0.001872 sec (17 allocations: 2.125 KB, 0.0% gc time)
tmultphi:    0.000949 sec (0 allocations: 0 byte, 0.0% gc time)
tbrfft:      0.003499 sec (0 allocations: 0 byte, 0.0% gc time)
tmultprefac: 0.002103 sec (0 allocations: 0 byte, 0.0% gc time)
toutfunc:    0.003083 sec (10.304 k allocations: 196.0 KB, 0.0% gc time)
Testing R=0.9 ... passed
Calculating fmax: 
  dlrec    = 4
  dlrecRg1 = -4
  q=1.1, R=0.8:	  0.167400 seconds (103.21 k allocations: 14.840 MiB)

  0.167534 seconds (103.25 k allocations: 14.874 MiB)
ℓ = 1202
Δℓ = 4
ΔℓRg1 = -4
N = 1600
q = 1.1
kmin = 1.0e-5
kmax = 100000.00000000004
χ0 = 0.023029999999999995
RR = RR.tsv
ℓmax = ℓmax.bin
f21 = f21.bin
kmin = 1.0e-5
kmax = 100000.0
dlrec    = 4
dlrecRg1 = -4
Output size: 5741568 bytes = 0.005347251892089844 GiB
Output size: 51264 bytes = 4.774332046508789e-5 GiB
Reading 'out/F21EllCache'...   0.000748 seconds (197 allocations: 84.203 KiB)
ellmax: 1202
lmaxcache: 1202
fell[:,1,1] = ComplexF64[7.519068145690986e-120 - 1.8416405474382574e-135im, 7.541664537386155e-120 - 1.847175067190611e-135im]
ell 1202, elapsed: 1.8835067749023438e-5
ell 1201, elapsed: 0.0002808570861816406
ell 1200, elapsed: 0.00027179718017578125
ell 1199, elapsed: 0.0002589225769042969
ell 1198, elapsed: 0.00026106834411621094
ell 1002, elapsed: 0.007894039154052734
ell 1001, elapsed: 0.0002529621124267578
ell 1000, elapsed: 0.0002579689025878906
ell 999, elapsed: 0.0002510547637939453
ell 998, elapsed: 0.000247955322265625
ell 902, elapsed: 0.004052877426147461
ell 901, elapsed: 0.0002620220184326172
ell 900, elapsed: 0.0002548694610595703
ell 899, elapsed: 0.00025010108947753906
ell 898, elapsed: 0.00025200843811035156
ell 802, elapsed: 0.004117012023925781
ell 801, elapsed: 0.00025200843811035156
ell 800, elapsed: 0.000247955322265625
ell 799, elapsed: 0.00024890899658203125
ell 798, elapsed: 0.0002491474151611328
ell 702, elapsed: 0.004235982894897461
ell 701, elapsed: 0.000247955322265625
ell 700, elapsed: 0.000247955322265625
ell 699, elapsed: 0.00025391578674316406
ell 698, elapsed: 0.00024509429931640625
ell 602, elapsed: 0.004182100296020508
ell 601, elapsed: 0.00024890899658203125
ell 600, elapsed: 0.00027298927307128906
ell 599, elapsed: 0.0002460479736328125
ell 598, elapsed: 0.0002491474151611328
ell 502, elapsed: 0.004045009613037109
ell 501, elapsed: 0.000247955322265625
ell 500, elapsed: 0.00024890899658203125
ell 499, elapsed: 0.00024700164794921875
ell 498, elapsed: 0.000247955322265625
ell 402, elapsed: 0.0040628910064697266
ell 401, elapsed: 0.000247955322265625
ell 400, elapsed: 0.000247955322265625
ell 399, elapsed: 0.0002570152282714844
ell 398, elapsed: 0.00024700164794921875
ell 302, elapsed: 0.0038938522338867188
ell 301, elapsed: 0.00021195411682128906
ell 300, elapsed: 0.00021004676818847656
ell 299, elapsed: 0.00020885467529296875
ell 298, elapsed: 0.00020813941955566406
ell 202, elapsed: 0.0036411285400390625
ell 201, elapsed: 0.00021004676818847656
ell 200, elapsed: 0.00020813941955566406
ell 199, elapsed: 0.00022792816162109375
ell 198, elapsed: 0.0002090930938720703
ell 152, elapsed: 0.0018160343170166016
ell 151, elapsed: 0.00020313262939453125
ell 150, elapsed: 0.00020503997802734375
ell 149, elapsed: 0.00020384788513183594
ell 148, elapsed: 0.00020313262939453125
ell 127, elapsed: 0.0009300708770751953
ell 126, elapsed: 0.00021910667419433594
ell 125, elapsed: 0.0002009868621826172
ell 124, elapsed: 0.00019884109497070312
ell 123, elapsed: 0.00020313262939453125
ell 114, elapsed: 0.0005030632019042969
ell 113, elapsed: 0.00020003318786621094
ell 112, elapsed: 0.00019693374633789062
ell 111, elapsed: 0.00020003318786621094
ell 110, elapsed: 0.00020694732666015625
ell 102, elapsed: 0.00047206878662109375
ell 101, elapsed: 0.0001990795135498047
ell 100, elapsed: 0.00020194053649902344
ell 99, elapsed: 0.00020503997802734375
ell 98, elapsed: 0.00019812583923339844
ell 97, elapsed: 0.00022792816162109375
ell 96, elapsed: 0.00023293495178222656
ell 95, elapsed: 0.0002319812774658203
ell 94, elapsed: 0.00022602081298828125
ell 93, elapsed: 0.0002300739288330078
ell 92, elapsed: 0.000225067138671875
ell 91, elapsed: 0.0002300739288330078
ell 90, elapsed: 0.0002319812774658203
ell 89, elapsed: 0.0002257823944091797
ell 88, elapsed: 0.0002319812774658203
ell 87, elapsed: 0.0002231597900390625
ell 86, elapsed: 0.00022602081298828125
ell 85, elapsed: 0.00023102760314941406
ell 84, elapsed: 0.00022602081298828125
ell 83, elapsed: 0.00023698806762695312
ell 82, elapsed: 0.00022792816162109375
ell 81, elapsed: 0.00022482872009277344
ell 80, elapsed: 0.00023317337036132812
ell 79, elapsed: 0.00025010108947753906
ell 78, elapsed: 0.0002338886260986328
ell 77, elapsed: 0.00022792816162109375
ell 76, elapsed: 0.00022792816162109375
ell 75, elapsed: 0.00023102760314941406
ell 74, elapsed: 0.0002288818359375
ell 73, elapsed: 0.00022983551025390625
ell 72, elapsed: 0.0002281665802001953
ell 71, elapsed: 0.0002269744873046875
ell 70, elapsed: 0.00023603439331054688
ell 69, elapsed: 0.0002269744873046875
ell 68, elapsed: 0.00023508071899414062
ell 67, elapsed: 0.0002269744873046875
ell 66, elapsed: 0.00023102760314941406
ell 65, elapsed: 0.0002319812774658203
ell 64, elapsed: 0.0002300739288330078
ell 63, elapsed: 0.00024700164794921875
ell 62, elapsed: 0.00023412704467773438
ell 61, elapsed: 0.00022912025451660156
[...]
ell 781, elapsed: 0.0005090236663818359
ell 780, elapsed: 0.0005211830139160156
ell 779, elapsed: 0.0005400180816650391
ell 778, elapsed: 0.0005271434783935547
ell 772, elapsed: 0.0009379386901855469
ell 771, elapsed: 0.0005090236663818359
ell 770, elapsed: 0.0005118846893310547
ell 769, elapsed: 0.0005140304565429688
ell 768, elapsed: 0.0005121231079101562
ell 762, elapsed: 0.0009438991546630859
ell 761, elapsed: 0.0005209445953369141
ell 760, elapsed: 0.0005178451538085938
ell 759, elapsed: 0.00047016143798828125
ell 758, elapsed: 0.00046706199645996094
ell 752, elapsed: 0.0007572174072265625
ell 751, elapsed: 0.00048089027404785156
ell 750, elapsed: 0.0004551410675048828
ell 749, elapsed: 0.0005948543548583984
ell 748, elapsed: 0.0005950927734375
ell 742, elapsed: 0.0010111331939697266
ell 741, elapsed: 0.0005829334259033203
ell 740, elapsed: 0.0006201267242431641
ell 739, elapsed: 0.0005910396575927734
ell 738, elapsed: 0.0006091594696044922
ell 732, elapsed: 0.0008409023284912109
ell 731, elapsed: 0.0004608631134033203
ell 730, elapsed: 0.0004839897155761719
ell 729, elapsed: 0.0004570484161376953
ell 728, elapsed: 0.0005190372467041016
ell 722, elapsed: 0.0009682178497314453
ell 721, elapsed: 0.0005390644073486328
ell 720, elapsed: 0.0005409717559814453
ell 719, elapsed: 0.0005559921264648438
ell 718, elapsed: 0.0005409717559814453
ell 712, elapsed: 0.0009388923645019531
ell 711, elapsed: 0.0005350112915039062
ell 710, elapsed: 0.0005369186401367188
ell 709, elapsed: 0.0005390644073486328
ell 708, elapsed: 0.000537872314453125
ell 702, elapsed: 0.0009779930114746094
ell 701, elapsed: 0.0005321502685546875
ell 700, elapsed: 0.0005438327789306641
ell 699, elapsed: 0.0005331039428710938
ell 698, elapsed: 0.0005319118499755859
ell 692, elapsed: 0.0009338855743408203
ell 691, elapsed: 0.0005631446838378906
ell 690, elapsed: 0.0005397796630859375
ell 689, elapsed: 0.0005350112915039062
ell 688, elapsed: 0.0005359649658203125
ell 682, elapsed: 0.0009579658508300781
ell 681, elapsed: 0.0005228519439697266
ell 680, elapsed: 0.0005719661712646484
ell 679, elapsed: 0.0005261898040771484
ell 678, elapsed: 0.0005321502685546875
ell 672, elapsed: 0.0009281635284423828
ell 671, elapsed: 0.0005240440368652344
ell 670, elapsed: 0.0005331039428710938
ell 669, elapsed: 0.0005259513854980469
ell 668, elapsed: 0.0005679130554199219
ell 662, elapsed: 0.0009219646453857422
ell 661, elapsed: 0.000453948974609375
ell 660, elapsed: 0.00044798851013183594
ell 659, elapsed: 0.00043201446533203125
ell 658, elapsed: 0.00044608116149902344
ell 652, elapsed: 0.0007810592651367188
ell 651, elapsed: 0.00043010711669921875
ell 650, elapsed: 0.0004379749298095703
ell 649, elapsed: 0.0004329681396484375
ell 648, elapsed: 0.0004360675811767578
ell 642, elapsed: 0.0007250308990478516
ell 641, elapsed: 0.0004260540008544922
ell 640, elapsed: 0.00043392181396484375
ell 639, elapsed: 0.00042510032653808594
ell 638, elapsed: 0.0004649162292480469
ell 632, elapsed: 0.0007290840148925781
ell 631, elapsed: 0.0004229545593261719
ell 630, elapsed: 0.0004360675811767578
ell 629, elapsed: 0.00042700767517089844
ell 628, elapsed: 0.00043082237243652344
ell 622, elapsed: 0.0007159709930419922
ell 621, elapsed: 0.00044083595275878906
ell 620, elapsed: 0.0004298686981201172
ell 619, elapsed: 0.00042510032653808594
ell 618, elapsed: 0.00043201446533203125
ell 612, elapsed: 0.0007410049438476562
ell 611, elapsed: 0.0006029605865478516
ell 610, elapsed: 0.00043201446533203125
ell 609, elapsed: 0.0005559921264648438
ell 608, elapsed: 0.00047087669372558594
ell 602, elapsed: 0.0006949901580810547
ell 601, elapsed: 0.00039696693420410156
ell 600, elapsed: 0.0004088878631591797
ell 599, elapsed: 0.0004088878631591797
ell 598, elapsed: 0.00041413307189941406
ell 592, elapsed: 0.0006928443908691406
ell 591, elapsed: 0.00040078163146972656
ell 590, elapsed: 0.0004551410675048828
ell 589, elapsed: 0.0004169940948486328
ell 588, elapsed: 0.0004138946533203125
ell 582, elapsed: 0.0006859302520751953
ell 581, elapsed: 0.0004069805145263672
ell 580, elapsed: 0.0004189014434814453
ell 579, elapsed: 0.0004100799560546875
ell 578, elapsed: 0.000415802001953125
ell 572, elapsed: 0.0007090568542480469
ell 571, elapsed: 0.0004057884216308594
ell 570, elapsed: 0.0004169940948486328
ell 569, elapsed: 0.0004100799560546875
ell 568, elapsed: 0.00041484832763671875
ell 562, elapsed: 0.0007100105285644531
ell 561, elapsed: 0.0004050731658935547
ell 560, elapsed: 0.0004239082336425781
ell 559, elapsed: 0.00041103363037109375
ell 558, elapsed: 0.0004749298095703125
ell 552, elapsed: 0.0006968975067138672
ell 551, elapsed: 0.0004069805145263672
ell 550, elapsed: 0.00041985511779785156
ell 549, elapsed: 0.0004119873046875
ell 548, elapsed: 0.0004169940948486328
ell 542, elapsed: 0.0006949901580810547
ell 541, elapsed: 0.00040793418884277344
ell 540, elapsed: 0.00043487548828125
ell 539, elapsed: 0.0004100799560546875
ell 538, elapsed: 0.0004191398620605469
ell 532, elapsed: 0.0007009506225585938
ell 531, elapsed: 0.00040793418884277344
ell 530, elapsed: 0.0004208087921142578
ell 529, elapsed: 0.0004119873046875
ell 528, elapsed: 0.0004169940948486328
ell 522, elapsed: 0.0007131099700927734
ell 521, elapsed: 0.00040602684020996094
ell 520, elapsed: 0.00041604042053222656
ell 519, elapsed: 0.00040602684020996094
ell 518, elapsed: 0.00041484832763671875
ell 512, elapsed: 0.0006890296936035156
ell 511, elapsed: 0.00040602684020996094
ell 510, elapsed: 0.00041794776916503906
ell 509, elapsed: 0.00040912628173828125
ell 508, elapsed: 0.00044417381286621094
ell 502, elapsed: 0.0006988048553466797
ell 501, elapsed: 0.0004057884216308594
ell 500, elapsed: 0.00041413307189941406
ell 499, elapsed: 0.0004069805145263672
ell 498, elapsed: 0.0004119873046875
ell 492, elapsed: 0.0006859302520751953
ell 491, elapsed: 0.0004038810729980469
ell 490, elapsed: 0.0004489421844482422
ell 489, elapsed: 0.0004050731658935547
ell 488, elapsed: 0.0004119873046875
ell 482, elapsed: 0.0006890296936035156
ell 481, elapsed: 0.0004069805145263672
ell 480, elapsed: 0.00041794776916503906
ell 479, elapsed: 0.0004088878631591797
ell 478, elapsed: 0.00041604042053222656
ell 472, elapsed: 0.0007159709930419922
ell 471, elapsed: 0.0004069805145263672
ell 470, elapsed: 0.0004169940948486328
ell 469, elapsed: 0.0004069805145263672
ell 468, elapsed: 0.0004150867462158203
ell 462, elapsed: 0.0006849765777587891
ell 461, elapsed: 0.0004031658172607422
ell 460, elapsed: 0.0004138946533203125
ell 459, elapsed: 0.0004050731658935547
ell 458, elapsed: 0.0005669593811035156
ell 452, elapsed: 0.0011739730834960938
ell 451, elapsed: 0.0005891323089599609
ell 450, elapsed: 0.0005919933319091797
ell 449, elapsed: 0.0005960464477539062
ell 448, elapsed: 0.0006248950958251953
ell 442, elapsed: 0.0011990070343017578
ell 441, elapsed: 0.0006060600280761719
ell 440, elapsed: 0.0006098747253417969
ell 439, elapsed: 0.0006098747253417969
ell 438, elapsed: 0.0006639957427978516
ell 432, elapsed: 0.0012581348419189453
ell 431, elapsed: 0.0006191730499267578
ell 430, elapsed: 0.00061798095703125
ell 429, elapsed: 0.0006129741668701172
ell 428, elapsed: 0.0006480216979980469
ell 422, elapsed: 0.0012450218200683594
ell 421, elapsed: 0.0006129741668701172
ell 420, elapsed: 0.0006189346313476562
ell 419, elapsed: 0.0006158351898193359
ell 418, elapsed: 0.0006630420684814453
ell 412, elapsed: 0.0011870861053466797
ell 411, elapsed: 0.0006101131439208984
ell 410, elapsed: 0.0006189346313476562
ell 409, elapsed: 0.0006139278411865234
ell 408, elapsed: 0.0006608963012695312
ell 402, elapsed: 0.0011949539184570312
ell 401, elapsed: 0.0006139278411865234
ell 400, elapsed: 0.0006208419799804688
ell 399, elapsed: 0.0006110668182373047
ell 398, elapsed: 0.0006358623504638672
ell 392, elapsed: 0.0011980533599853516
ell 391, elapsed: 0.0005590915679931641
ell 390, elapsed: 0.00055694580078125
ell 389, elapsed: 0.0005550384521484375
ell 388, elapsed: 0.00055694580078125
ell 382, elapsed: 0.0010139942169189453
ell 381, elapsed: 0.0005500316619873047
ell 380, elapsed: 0.0005459785461425781
ell 379, elapsed: 0.0005462169647216797
ell 378, elapsed: 0.0005500316619873047
ell 372, elapsed: 0.0009779930114746094
ell 371, elapsed: 0.000576019287109375
ell 370, elapsed: 0.0005521774291992188
ell 369, elapsed: 0.0005478858947753906
ell 368, elapsed: 0.0005519390106201172
ell 362, elapsed: 0.000965118408203125
ell 361, elapsed: 0.0005500316619873047
ell 360, elapsed: 0.0005900859832763672
ell 359, elapsed: 0.0005519390106201172
ell 358, elapsed: 0.0005519390106201172
ell 352, elapsed: 0.0009639263153076172
ell 351, elapsed: 0.0005438327789306641
ell 350, elapsed: 0.0005488395690917969
ell 349, elapsed: 0.0005960464477539062
ell 348, elapsed: 0.0005500316619873047
ell 342, elapsed: 0.0009598731994628906
ell 341, elapsed: 0.0005459785461425781
ell 340, elapsed: 0.0005521774291992188
ell 339, elapsed: 0.0005450248718261719
ell 338, elapsed: 0.0005772113800048828
ell 332, elapsed: 0.0009388923645019531
ell 331, elapsed: 0.00045108795166015625
ell 330, elapsed: 0.00043892860412597656
ell 329, elapsed: 0.0009300708770751953
ell 328, elapsed: 0.0004620552062988281
ell 322, elapsed: 0.0007319450378417969
ell 321, elapsed: 0.0004279613494873047
ell 320, elapsed: 0.0008819103240966797
ell 319, elapsed: 0.0004298686981201172
ell 318, elapsed: 0.00043201446533203125
ell 312, elapsed: 0.0007140636444091797
ell 311, elapsed: 0.0004220008850097656
ell 310, elapsed: 0.0004429817199707031
ell 309, elapsed: 0.0004210472106933594
ell 308, elapsed: 0.0004200935363769531
ell 302, elapsed: 0.0006859302520751953
ell 301, elapsed: 0.0004100799560546875
ell 300, elapsed: 0.0004150867462158203
ell 299, elapsed: 0.0004050731658935547
ell 298, elapsed: 0.00041604042053222656
ell 292, elapsed: 0.0007121562957763672
ell 291, elapsed: 0.0004069805145263672
ell 290, elapsed: 0.0004088878631591797
ell 289, elapsed: 0.0004050731658935547
ell 288, elapsed: 0.00040602684020996094
ell 282, elapsed: 0.0006649494171142578
ell 281, elapsed: 0.0003979206085205078
ell 280, elapsed: 0.0004029273986816406
ell 279, elapsed: 0.00039505958557128906
ell 278, elapsed: 0.0004169940948486328
ell 272, elapsed: 0.000675201416015625
ell 271, elapsed: 0.0003979206085205078
ell 270, elapsed: 0.0004029273986816406
ell 269, elapsed: 0.0004010200500488281
ell 268, elapsed: 0.00040411949157714844
ell 262, elapsed: 0.0006709098815917969
ell 261, elapsed: 0.0005450248718261719
ell 260, elapsed: 0.00047707557678222656
ell 259, elapsed: 0.000579833984375
ell 258, elapsed: 0.0003991127014160156
ell 252, elapsed: 0.0006749629974365234
ell 251, elapsed: 0.0004010200500488281
ell 250, elapsed: 0.0004029273986816406
ell 249, elapsed: 0.0003991127014160156
ell 248, elapsed: 0.0004131793975830078
ell 242, elapsed: 0.0007359981536865234
ell 241, elapsed: 0.0004220008850097656
ell 240, elapsed: 0.00041294097900390625
ell 239, elapsed: 0.00040411949157714844
ell 238, elapsed: 0.0004088878631591797
ell 232, elapsed: 0.0006871223449707031
ell 231, elapsed: 0.0004069805145263672
ell 230, elapsed: 0.00041794776916503906
ell 229, elapsed: 0.0004069805145263672
ell 228, elapsed: 0.00042700767517089844
ell 222, elapsed: 0.00067901611328125
ell 221, elapsed: 0.0006020069122314453
ell 220, elapsed: 0.00041294097900390625
ell 219, elapsed: 0.0005960464477539062
ell 218, elapsed: 0.00040912628173828125
ell 212, elapsed: 0.0006899833679199219
ell 211, elapsed: 0.0004379749298095703
ell 210, elapsed: 0.0004100799560546875
ell 209, elapsed: 0.0004029273986816406
ell 208, elapsed: 0.0004100799560546875
ell 202, elapsed: 0.0006787776947021484
ell 201, elapsed: 0.0004029273986816406
ell 200, elapsed: 0.0004069805145263672
ell 199, elapsed: 0.0004019737243652344
ell 198, elapsed: 0.0004038810729980469
ell 192, elapsed: 0.0006909370422363281
ell 191, elapsed: 0.0004031658172607422
ell 190, elapsed: 0.00040793418884277344
ell 189, elapsed: 0.0004029273986816406
ell 188, elapsed: 0.00040912628173828125
ell 182, elapsed: 0.0006778240203857422
ell 181, elapsed: 0.0004000663757324219
ell 180, elapsed: 0.0004069805145263672
ell 179, elapsed: 0.0004329681396484375
ell 178, elapsed: 0.0004069805145263672
ell 172, elapsed: 0.0006699562072753906
ell 171, elapsed: 0.0004010200500488281
ell 170, elapsed: 0.0004048347473144531
ell 169, elapsed: 0.0003979206085205078
ell 168, elapsed: 0.0004010200500488281
ell 162, elapsed: 0.0006759166717529297
ell 161, elapsed: 0.0003981590270996094
ell 160, elapsed: 0.0004420280456542969
ell 159, elapsed: 0.0004029273986816406
ell 158, elapsed: 0.0004119873046875
ell 152, elapsed: 0.0006830692291259766
ell 151, elapsed: 0.0004010200500488281
ell 150, elapsed: 0.0004069805145263672
ell 149, elapsed: 0.0004010200500488281
ell 148, elapsed: 0.00041294097900390625
ell 142, elapsed: 0.0007050037384033203
ell 141, elapsed: 0.0004000663757324219
ell 140, elapsed: 0.0004088878631591797
ell 139, elapsed: 0.00039887428283691406
ell 138, elapsed: 0.0004050731658935547
ell 132, elapsed: 0.0006780624389648438
ell 131, elapsed: 0.0004029273986816406
ell 130, elapsed: 0.0004069805145263672
ell 129, elapsed: 0.00039887428283691406
ell 128, elapsed: 0.00043892860412597656
ell 122, elapsed: 0.0006890296936035156
ell 121, elapsed: 0.0004019737243652344
ell 120, elapsed: 0.0004100799560546875
ell 119, elapsed: 0.0004038810729980469
ell 118, elapsed: 0.00040602684020996094
ell 112, elapsed: 0.0006928443908691406
ell 111, elapsed: 0.0004019737243652344
ell 110, elapsed: 0.0004999637603759766
ell 109, elapsed: 0.000514984130859375
ell 108, elapsed: 0.0005538463592529297
ell 102, elapsed: 0.000949859619140625
ell 101, elapsed: 0.002223968505859375
ell 100, elapsed: 0.0021851062774658203
ell 99, elapsed: 0.0022430419921875
ell 98, elapsed: 0.002254009246826172
ell 92, elapsed: 0.0050890445709228516
ell 91, elapsed: 0.002557039260864258
ell 90, elapsed: 0.002532958984375
ell 89, elapsed: 0.0024051666259765625
ell 88, elapsed: 0.002207040786743164
ell 82, elapsed: 0.004178047180175781
ell 81, elapsed: 0.0021181106567382812
ell 80, elapsed: 0.001971006393432617
ell 79, elapsed: 0.0019631385803222656
ell 78, elapsed: 0.0019309520721435547
ell 72, elapsed: 0.004361152648925781
ell 71, elapsed: 0.0018579959869384766
ell 70, elapsed: 0.0018320083618164062
ell 69, elapsed: 0.0018310546875
ell 68, elapsed: 0.0017931461334228516
ell 62, elapsed: 0.003571033477783203
ell 61, elapsed: 0.0018091201782226562
ell 60, elapsed: 0.0018029212951660156
ell 59, elapsed: 0.0017919540405273438
ell 58, elapsed: 0.001811981201171875
ell 52, elapsed: 0.0035190582275390625
ell 51, elapsed: 0.0017850399017333984
ell 50, elapsed: 0.0018031597137451172
ell 49, elapsed: 0.0017888545989990234
ell 48, elapsed: 0.0018339157104492188
ell 42, elapsed: 0.0038671493530273438
ell 41, elapsed: 0.0017490386962890625
ell 40, elapsed: 0.0017790794372558594
ell 39, elapsed: 0.0017960071563720703
ell 38, elapsed: 0.0017859935760498047
ell 32, elapsed: 0.0035800933837890625
ell 31, elapsed: 0.0018320083618164062
ell 30, elapsed: 0.0018351078033447266
ell 29, elapsed: 0.0018651485443115234
ell 28, elapsed: 0.0018351078033447266
ell 22, elapsed: 0.0036468505859375
ell 21, elapsed: 0.001814126968383789
ell 20, elapsed: 0.002149820327758789
ell 19, elapsed: 0.002260923385620117
ell 18, elapsed: 0.002223968505859375
ell 12, elapsed: 0.004233121871948242
ell 11, elapsed: 0.00220489501953125
ell 10, elapsed: 0.0022308826446533203
ell 9, elapsed: 0.0023097991943359375
ell 8, elapsed: 0.0023241043090820312
  0.428308 seconds (68.56 k allocations: 12.176 MiB)
elapsed: 0.0027191638946533203
step:          0.037203 sec (0 allocations: 0 byte, 0.0% gc time)
swapping:      0.000474 sec (0 allocations: 0 byte, 0.0% gc time)
calc_Mellell!: 0.014308 sec (0 allocations: 0 byte, 0.0% gc time)
  t0 :  0.005234 sec (0 allocations: 0 byte, 0.0% gc time)
  tm2 : 0.043351 sec (0 allocations: 0 byte, 0.0% gc time)
  tm2s: 0.0052 sec (0 allocations: 0 byte, 0.0% gc time)
  tm4 : 0.094447 sec (0 allocations: 0 byte, 0.0% gc time)
  tp2 : 0.0 sec (0 allocations: 0 byte, 0.0% gc time)
  tp2s: 0.0 sec (0 allocations: 0 byte, 0.0% gc time)
  tp4 : 0.0 sec (0 allocations: 0 byte, 0.0% gc time)
calc_wtdll!:   0.316052 sec (48.6 k allocations: 11.096 MB, 0.0% gc time)
calc_wljj!:    0.01519 sec (69 allocations: 1.078 KB, 0.0% gc time)
mult_prefac!:  0.0 sec (0 allocations: 0 byte, 0.0% gc time)
convert:       0.0 sec (0 allocations: 0 byte, 0.0% gc time)
write:         0.021736 sec (0 allocations: 0 byte, 0.0% gc time)
test_rand_2f1: 0.0 sec (0 allocations: 0 byte, 0.0% gc time)
Closing outfile out/MlCache/MlCache.bin...   0.000005 seconds
xi, l=0, nu=0:   0.196478 seconds (603.11 k allocations: 32.983 MiB, 99.42% compilation time)
xi, l=0, nu=-2:  0.001126 seconds (114 allocations: 148.969 KiB)
Created 'out/xi.tsv'.
  q=1.1, R=0.6:	  0.342825 seconds (264.58 k allocations: 38.109 MiB, 2.48% gc time)
  q=1.1, R=0.7:	  0.389003 seconds (276.43 k allocations: 40.113 MiB, 1.84% gc time)
  q=1.1, R=0.8:	  0.399716 seconds (271.87 k allocations: 39.334 MiB, 1.15% gc time)
  q=1.1, R=0.9:	  0.479286 seconds (266.68 k allocations: 38.464 MiB, 1.05% gc time)
  q=1.1, R=0.998:	 10.555129 seconds (114.96 k allocations: 7.588 MiB)
  q=1.1, R=1.0:	  0.002081 seconds (8.20 k allocations: 704.344 KiB)

ℓ = 1000
Δℓ = 4
ΔℓRg1 = -4
N = 4096
q = 1.1
kmin = 1.0e-5
kmax = 1000.0
χ0 = 0.001
RR = RR.tsv
ℓmax = ℓmax.bin
f21 = f21.bin
kmin = 1.0e-5
kmax = 1000.0
dlrec    = 4
dlrecRg1 = -4
Output size: 1573632 bytes = 0.0014655590057373047 GiB
Output size: 786816 bytes = 0.0007327795028686523 GiB
Reading 'out/F21EllCache'...   0.000948 seconds (198 allocations: 533.078 KiB)
ellmax: 1002
lmaxcache: 1000
fell[:,1,1] = ComplexF64[1.726292812820208e-224 - 4.2281979352226965e-240im, 1.7282693092099638e-224 - 4.233038955177178e-240im]
ell 1002, elapsed: 4.38690185546875e-5
ell 1001, elapsed: 0.0004169940948486328
ell 1000, elapsed: 0.0005269050598144531
ell 999, elapsed: 0.0032100677490234375
ell 998, elapsed: 0.0031270980834960938
ell 44, elapsed: 0.5076019763946533
ell 43, elapsed: 0.003698110580444336
ell 42, elapsed: 0.0037980079650878906
ell 41, elapsed: 0.0040988922119140625
ell 40, elapsed: 0.004121065139770508
  0.536169 seconds (4.59 k allocations: 322.266 KiB)
elapsed: 0.005434989929199219
step:          0.50716 sec (0 allocations: 0 byte, 0.0% gc time)
swapping:      0.000216 sec (0 allocations: 0 byte, 0.0% gc time)
calc_Mellell!: 0.0006 sec (0 allocations: 0 byte, 0.0% gc time)
  t0 :  0.000361 sec (0 allocations: 0 byte, 0.0% gc time)
  tm2 : 0.007117 sec (0 allocations: 0 byte, 0.0% gc time)
  tm2s: 0.000392 sec (0 allocations: 0 byte, 0.0% gc time)
  tm4 : 0.01672 sec (0 allocations: 0 byte, 0.0% gc time)
  tp2 : 0.0 sec (0 allocations: 0 byte, 0.0% gc time)
  tp2s: 0.0 sec (0 allocations: 0 byte, 0.0% gc time)
  tp4 : 0.0 sec (0 allocations: 0 byte, 0.0% gc time)
calc_wtdll!:   0.02475 sec (480 allocations: 52.5 KB, 0.0% gc time)
calc_wljj!:    0.000781 sec (1 allocations: 16 byte, 0.0% gc time)
mult_prefac!:  0.0 sec (0 allocations: 0 byte, 0.0% gc time)
convert:       0.0 sec (0 allocations: 0 byte, 0.0% gc time)
write:         0.000875 sec (0 allocations: 0 byte, 0.0% gc time)
test_rand_2f1: 0.0 sec (0 allocations: 0 byte, 0.0% gc time)
Closing outfile out/MlCache/MlCache.bin...   0.000007 seconds
  0.308138 seconds (38 allocations: 66.859 KiB)
make_phi():   0.003878 seconds (65 allocations: 275.984 KiB)
  0.026850 seconds (11.42 k allocations: 711.960 KiB, 91.34% compilation time)
tskip:       0.0 sec (0 allocations: 0 byte, 0.0% gc time)
tread:       0.000486 sec (17 allocations: 1.266 KB, 0.0% gc time)
tmultphi:    0.000136 sec (0 allocations: 0 byte, 0.0% gc time)
tbrfft:      0.000636 sec (0 allocations: 0 byte, 0.0% gc time)
tmultprefac: 0.000316 sec (0 allocations: 0 byte, 0.0% gc time)
toutfunc:    0.000116 sec (0 allocations: 0 byte, 0.0% gc time)
Created 'out/wl42_jj00.tsv'.
Created 'out/wl42_jj02.tsv'.
    Testing TwoFAST tests passed 
