Julia Version 1.6.0-DEV.970
Commit e476b33821 (2020-09-18 18:06 UTC)
Platform Info:
  OS: Linux (x86_64-linux-gnu)
  CPU: Intel(R) Xeon(R) Silver 4114 CPU @ 2.20GHz
  WORD_SIZE: 64
  LIBM: libopenlibm
  LLVM: libLLVM-9.0.1 (ORCJIT, skylake-avx512)
Environment:
  JULIA_DEPOT_PATH = ::/usr/local/share/julia
  JULIA_NUM_THREADS = 2

  Resolving package versions...
[ Info: LEGAL NOTICE: package operations send anonymous data about your system to https://pkg.julialang.org (your current package server), including the operating system and Julia versions you are using, and a random client UUID. Running `Pkg.telemetryinfo()` will show exactly what data is sent. See https://julialang.org/legal/data/ for more details about what this data is used for, how long it is retained, and how to opt out of sending it.
  Installed Reexport ───────────────────── v0.2.0
  Installed IntelOpenMP_jll ────────────── v2018.0.3+0
  Installed OpenSpecFun_jll ────────────── v0.5.3+3
  Installed FFTW_jll ───────────────────── v3.3.9+5
  Installed GenericSVD ─────────────────── v0.3.0
  Installed FFTW ───────────────────────── v1.2.4
  Installed ArbNumerics ────────────────── v1.2.1
  Installed MKL_jll ────────────────────── v2020.2.254+0
  Installed AbstractFFTs ───────────────── v0.5.0
  Installed SpecialFunctions ───────────── v0.10.3
  Installed CompilerSupportLibraries_jll ─ v0.3.3+0
  Installed Readables ──────────────────── v0.3.3
  Installed GenericSchur ───────────────── v0.4.0
  Installed BinaryProvider ─────────────── v0.5.10
  Installed TwoFAST ────────────────────── v0.1.3
Updating `~/.julia/environments/v1.6/Project.toml`
  [0dd23c3e] + TwoFAST v0.1.3
Updating `~/.julia/environments/v1.6/Manifest.toml`
  [621f4979] + AbstractFFTs v0.5.0
  [7e558dbc] + ArbNumerics v1.2.1
  [b99e7846] + BinaryProvider v0.5.10
  [e66e0078] + CompilerSupportLibraries_jll v0.3.3+0
  [7a1cc6ca] + FFTW v1.2.4
  [f5851436] + FFTW_jll v3.3.9+5
  [01680d73] + GenericSVD v0.3.0
  [c145ed77] + GenericSchur v0.4.0
  [1d5cc7b8] + IntelOpenMP_jll v2018.0.3+0
  [856f044c] + MKL_jll v2020.2.254+0
  [efe28fd5] + OpenSpecFun_jll v0.5.3+3
  [0d4725de] + Readables v0.3.3
  [189a3867] + Reexport v0.2.0
  [276daf66] + SpecialFunctions v0.10.3
  [0dd23c3e] + TwoFAST v0.1.3
  [2a0f44e3] + Base64
  [ade2ca70] + Dates
  [8bb1440f] + DelimitedFiles
  [8ba89e20] + Distributed
  [b77e0a4c] + InteractiveUtils
  [76f85450] + LibGit2
  [8f399da3] + Libdl
  [37e2e46d] + LinearAlgebra
  [56ddb016] + Logging
  [d6f4376e] + Markdown
  [a63ad114] + Mmap
  [44cfe95a] + Pkg
  [de0858da] + Printf
  [3fa0cd96] + REPL
  [9a3f8284] + Random
  [ea8e919c] + SHA
  [9e88b42a] + Serialization
  [6462fe0b] + Sockets
  [fa267f1f] + TOML
  [8dfed614] + Test
  [cf7118a7] + UUIDs
  [4ec0a83e] + Unicode
   Building FFTW ───────→ `~/.julia/packages/FFTW/DMUbN/deps/build.log`
   Building ArbNumerics → `~/.julia/packages/ArbNumerics/joGFm/deps/build.log`
    Testing TwoFAST
Status `/tmp/jl_QzOQd6/Project.toml`
  [7e558dbc] ArbNumerics v1.2.1
  [39dd38d3] Dierckx v0.5.0
  [7a1cc6ca] FFTW v1.2.4
  [276daf66] SpecialFunctions v0.10.3
  [0dd23c3e] TwoFAST v0.1.3
  [8bb1440f] DelimitedFiles
  [37e2e46d] LinearAlgebra
  [56ddb016] Logging
  [8dfed614] Test
Status `/tmp/jl_QzOQd6/Manifest.toml`
  [621f4979] AbstractFFTs v0.5.0
  [7e558dbc] ArbNumerics v1.2.1
  [b99e7846] BinaryProvider v0.5.10
  [e66e0078] CompilerSupportLibraries_jll v0.3.3+0
  [39dd38d3] Dierckx v0.5.0
  [cd4c43a9] Dierckx_jll v0.0.1+0
  [7a1cc6ca] FFTW v1.2.4
  [f5851436] FFTW_jll v3.3.9+5
  [01680d73] GenericSVD v0.3.0
  [c145ed77] GenericSchur v0.4.0
  [1d5cc7b8] IntelOpenMP_jll v2018.0.3+0
  [856f044c] MKL_jll v2020.2.254+0
  [efe28fd5] OpenSpecFun_jll v0.5.3+3
  [0d4725de] Readables v0.3.3
  [189a3867] Reexport v0.2.0
  [276daf66] SpecialFunctions v0.10.3
  [0dd23c3e] TwoFAST v0.1.3
  [2a0f44e3] Base64
  [ade2ca70] Dates
  [8bb1440f] DelimitedFiles
  [8ba89e20] Distributed
  [b77e0a4c] InteractiveUtils
  [76f85450] LibGit2
  [8f399da3] Libdl
  [37e2e46d] LinearAlgebra
  [56ddb016] Logging
  [d6f4376e] Markdown
  [a63ad114] Mmap
  [44cfe95a] Pkg
  [de0858da] Printf
  [3fa0cd96] REPL
  [9a3f8284] Random
  [ea8e919c] SHA
  [9e88b42a] Serialization
  [6462fe0b] Sockets
  [fa267f1f] TOML
  [8dfed614] Test
  [cf7118a7] UUIDs
  [4ec0a83e] Unicode
    Testing Running tests...
WARNING: could not import Printf.ini_hex into ArbNumerics
WARNING: could not import Printf.ini_HEX into ArbNumerics
t = 0.0 sec (0 allocations: 0 byte, 0.0% gc time)
typeof(t) = NamedTuple{(:value, :time, :bytes, :gctime, :gcstats), Tuple{DataType, Float64, Int64, Float64, Base.GC_Diff}}
TwoFAST.PerformanceStats.TimedType = Union{NamedTuple{(:value, :time, :bytes, :gctime, :gcstats), Tuple{T, Float64, Int64, Float64, Base.GC_Diff}}, Tuple{Any, Float64, Int64, Float64, Base.GC_Diff}} where T
t = 1.0e-6 sec (0 allocations: 0 byte, 0.0% gc time)
t: 1.0e-6 sec (0 allocations: 0 byte, 0.0% gc time)
Testing ξ(r), ℓ=0, ν=-1 ... passed
Testing ξ(r), ℓ=0, ν=0 ... passed
Testing ξ(r), ℓ=0, ν=1 ... passed
Testing ξ(r), ℓ=0, ν=2 ... passed
Testing ξ(r), ℓ=0, ν=3 ... passed
Testing ξ(r), ℓ=1, ν=0 ... passed
Testing ξ(r), ℓ=1, ν=1 ... passed
Testing ξ(r), ℓ=1, ν=2 ... passed
Testing ξ(r), ℓ=1, ν=3 ... passed
Testing ξ(r), ℓ=2, ν=-1 ... passed
Testing ξ(r), ℓ=2, ν=0 ... passed
Testing ξ(r), ℓ=2, ν=1 ... passed
Testing ξ(r), ℓ=2, ν=2 ... passed
Testing ξ(r), ℓ=2, ν=3 ... passed
Testing ξ(r), ℓ=3, ν=-1 ... passed
Testing ξ(r), ℓ=3, ν=0 ... passed
Testing ξ(r), ℓ=3, ν=1 ... passed
Testing ξ(r), ℓ=3, ν=2 ... passed
Testing ξ(r), ℓ=3, ν=3 ... passed
Testing ξ(r), ℓ=4, ν=-1 ... passed
Testing ξ(r), ℓ=4, ν=0 ... passed
Testing ξ(r), ℓ=4, ν=1 ... passed
Testing ξ(r), ℓ=4, ν=2 ... passed
Testing ξ(r), ℓ=4, ν=3 ... passed
Testing ξ(r) ... passed
Testing ξ′(r) ... passed
Testing ξ″(r) ... passed
Calculating fmax: 
  dlrec    = 4
  dlrecRg1 = -4
  q=1.1, R=1.1:	  5.282890 seconds (837.29 k allocations: 53.441 MiB, 0.80% gc time)

  5.305054 seconds (850.03 k allocations: 54.234 MiB, 0.80% gc time)
ℓ = 1202
Δℓ = 4
ΔℓRg1 = -4
N = 1600
q = 1.1
kmin = 1.0e-5
kmax = 100000.00000000004
χ0 = 0.023029999999999995
RR = RR.tsv
ℓmax = ℓmax.bin
f21 = f21.bin
kmin = 1.0e-5
kmax = 100000.0
dlrec    = 4
dlrecRg1 = -4
Output size: 5741568 bytes = 0.005347251892089844 GiB
Output size: 51264 bytes = 4.774332046508789e-5 GiB
Reading 'out/F21EllCache'...   1.024601 seconds (398.07 k allocations: 23.348 MiB, 7.38% gc time)
ellmax: 1202
lmaxcache: 1202
fell[:,1,1] = ComplexF64[3.9583795592771634e-52 - 9.695233714158177e-68im, 3.990121772925759e-52 - 9.772979714843386e-68im]
ell 1202, elapsed: 4.1961669921875e-5
ell 1201, elapsed: 1.2308259010314941
ell 1200, elapsed: 0.0006458759307861328
ell 1199, elapsed: 0.0006041526794433594
ell 1198, elapsed: 0.0006129741668701172
ell 1002, elapsed: 0.011778116226196289
ell 1001, elapsed: 0.0006380081176757812
ell 1000, elapsed: 0.0006468296051025391
ell 999, elapsed: 0.0006210803985595703
ell 998, elapsed: 0.0006182193756103516
ell 902, elapsed: 0.006155967712402344
ell 901, elapsed: 0.0006220340728759766
ell 900, elapsed: 0.0006139278411865234
ell 899, elapsed: 0.0006110668182373047
ell 898, elapsed: 0.0007870197296142578
ell 802, elapsed: 0.006082057952880859
ell 801, elapsed: 0.0006189346313476562
ell 800, elapsed: 0.0006768703460693359
ell 799, elapsed: 0.0006551742553710938
ell 798, elapsed: 0.0006148815155029297
ell 702, elapsed: 0.006005048751831055
ell 701, elapsed: 0.0006611347198486328
ell 700, elapsed: 0.0006170272827148438
ell 699, elapsed: 0.0006132125854492188
ell 698, elapsed: 0.0006151199340820312
ell 602, elapsed: 0.005993843078613281
ell 601, elapsed: 0.0006151199340820312
ell 600, elapsed: 0.0006191730499267578
ell 599, elapsed: 0.0006129741668701172
ell 598, elapsed: 0.0006110668182373047
ell 502, elapsed: 0.0059659481048583984
ell 501, elapsed: 0.0006129741668701172
ell 500, elapsed: 0.0006208419799804688
ell 499, elapsed: 0.0006117820739746094
ell 498, elapsed: 0.0006639957427978516
ell 402, elapsed: 0.005465030670166016
ell 401, elapsed: 0.0005159378051757812
ell 400, elapsed: 0.0005068778991699219
ell 399, elapsed: 0.0005049705505371094
ell 398, elapsed: 0.0005090236663818359
ell 302, elapsed: 0.005487918853759766
ell 301, elapsed: 0.0005249977111816406
ell 300, elapsed: 0.0005090236663818359
ell 299, elapsed: 0.0005099773406982422
ell 298, elapsed: 0.0005090236663818359
ell 202, elapsed: 0.005549907684326172
ell 201, elapsed: 0.0005199909210205078
ell 200, elapsed: 0.000537872314453125
ell 199, elapsed: 0.0005829334259033203
ell 198, elapsed: 0.0005619525909423828
ell 152, elapsed: 0.0029630661010742188
ell 151, elapsed: 0.0005500316619873047
ell 150, elapsed: 0.000576019287109375
ell 149, elapsed: 0.0005099773406982422
ell 148, elapsed: 0.0004999637603759766
ell 127, elapsed: 0.001703023910522461
ell 126, elapsed: 0.0005018711090087891
ell 125, elapsed: 0.0006048679351806641
ell 124, elapsed: 0.0005769729614257812
ell 123, elapsed: 0.0005710124969482422
ell 114, elapsed: 0.0009851455688476562
ell 113, elapsed: 0.0004990100860595703
ell 112, elapsed: 0.0004978179931640625
ell 111, elapsed: 0.000553131103515625
ell 110, elapsed: 0.0005619525909423828
ell 102, elapsed: 0.0009710788726806641
ell 101, elapsed: 0.0005900859832763672
ell 100, elapsed: 0.0006060600280761719
ell 99, elapsed: 0.0005850791931152344
ell 98, elapsed: 0.0006251335144042969
ell 97, elapsed: 0.0005779266357421875
ell 96, elapsed: 0.0005640983581542969
ell 95, elapsed: 0.0006189346313476562
ell 94, elapsed: 0.0006108283996582031
ell 93, elapsed: 0.0005631446838378906
ell 92, elapsed: 0.0006921291351318359
ell 91, elapsed: 0.0006020069122314453
ell 90, elapsed: 0.0006759166717529297
ell 89, elapsed: 0.0006401538848876953
ell 88, elapsed: 0.0006308555603027344
ell 87, elapsed: 0.0006489753723144531
ell 86, elapsed: 0.0007190704345703125
ell 85, elapsed: 0.0006608963012695312
ell 84, elapsed: 0.0006299018859863281
ell 83, elapsed: 0.0005459785461425781
ell 82, elapsed: 0.0005750656127929688
ell 81, elapsed: 0.0006148815155029297
ell 80, elapsed: 0.0006480216979980469
ell 79, elapsed: 0.0006229877471923828
ell 78, elapsed: 0.0006139278411865234
ell 77, elapsed: 0.0006411075592041016
ell 76, elapsed: 0.0005669593811035156
ell 75, elapsed: 0.0005900859832763672
ell 74, elapsed: 0.0006799697875976562
ell 73, elapsed: 0.0005559921264648438
ell 72, elapsed: 0.000598907470703125
ell 71, elapsed: 0.0006520748138427734
ell 70, elapsed: 0.0006339550018310547
ell 69, elapsed: 0.0005528926849365234
ell 68, elapsed: 0.0006020069122314453
ell 67, elapsed: 0.0005600452423095703
ell 66, elapsed: 0.0006258487701416016
ell 65, elapsed: 0.0005450248718261719
ell 64, elapsed: 0.0005521774291992188
ell 63, elapsed: 0.0005660057067871094
ell 62, elapsed: 0.0006577968597412109
ell 61, elapsed: 0.0005741119384765625
ell 60, elapsed: 0.0006170272827148438
ell 59, elapsed: 0.0005431175231933594
ell 58, elapsed: 0.0005869865417480469
ell 57, elapsed: 0.0006301403045654297
ell 56, elapsed: 0.000598907470703125
ell 55, elapsed: 0.0006070137023925781
ell 54, elapsed: 0.0005500316619873047
ell 53, elapsed: 0.0006010532379150391
ell 52, elapsed: 0.0006270408630371094
ell 51, elapsed: 0.0005490779876708984
ell 50, elapsed: 0.0005528926849365234
ell 49, elapsed: 0.0006139278411865234
ell 48, elapsed: 0.0005559921264648438
ell 47, elapsed: 0.0005509853363037109
ell 46, elapsed: 0.0005650520324707031
ell 45, elapsed: 0.0006260871887207031
ell 44, elapsed: 0.0005488395690917969
ell 43, elapsed: 0.0005960464477539062
ell 42, elapsed: 0.0005559921264648438
ell 41, elapsed: 0.0006129741668701172
ell 40, elapsed: 0.0005800724029541016
ell 39, elapsed: 0.0005500316619873047
ell 38, elapsed: 0.0005719661712646484
ell 37, elapsed: 0.0006189346313476562
ell 36, elapsed: 0.0006821155548095703
ell 35, elapsed: 0.0006351470947265625
ell 34, elapsed: 0.0005991458892822266
ell 33, elapsed: 0.0005919933319091797
ell 32, elapsed: 0.0005509853363037109
ell 31, elapsed: 0.0005490779876708984
ell 30, elapsed: 0.0006041526794433594
ell 29, elapsed: 0.0005571842193603516
ell 28, elapsed: 0.0006000995635986328
ell 27, elapsed: 0.0006239414215087891
ell 26, elapsed: 0.0005581378936767578
ell 25, elapsed: 0.0005481243133544922
ell 24, elapsed: 0.00055694580078125
ell 23, elapsed: 0.0005838871002197266
ell 22, elapsed: 0.00061798095703125
ell 21, elapsed: 0.0006301403045654297
ell 20, elapsed: 0.0006349086761474609
ell 19, elapsed: 0.0005869865417480469
ell 18, elapsed: 0.0005540847778320312
ell 17, elapsed: 0.0005621910095214844
ell 16, elapsed: 0.0005538463592529297
ell 15, elapsed: 0.0005481243133544922
ell 14, elapsed: 0.0005459785461425781
ell 13, elapsed: 0.000553131103515625
ell 12, elapsed: 0.0005469322204589844
ell 11, elapsed: 0.0005700588226318359
ell 10, elapsed: 0.0005481243133544922
ell 9, elapsed: 0.0005381107330322266
ell 8, elapsed: 0.0005469322204589844
ell 7, elapsed: 0.0005409717559814453
ell 6, elapsed: 0.0005810260772705078
ell 5, elapsed: 0.0005459785461425781
ell 4, elapsed: 0.0005719661712646484
ell 3, elapsed: 0.0005469322204589844
ell 2, elapsed: 0.0005409717559814453
ell 1, elapsed: 0.0005450248718261719
ell 0, elapsed: 0.0005450248718261719
  1.937357 seconds (1.27 M allocations: 69.564 MiB, 2.59% gc time)
elapsed: 0.0006430149078369141
step:          0.370763 sec (303.527 k allocations: 16.466 MB, 6.07% gc time)
swapping:      0.00054 sec (0 allocations: 0 byte, 0.0% gc time)
calc_Mellell!: 0.13408 sec (131.121 k allocations: 7.129 MB, 0.0% gc time)
  t0 :  0.0 sec (0 allocations: 0 byte, 0.0% gc time)
  tm2 : 0.0 sec (0 allocations: 0 byte, 0.0% gc time)
  tm2s: 0.0 sec (0 allocations: 0 byte, 0.0% gc time)
  tm4 : 0.0 sec (0 allocations: 0 byte, 0.0% gc time)
  tp2 : 0.0 sec (0 allocations: 0 byte, 0.0% gc time)
  tp2s: 0.0 sec (0 allocations: 0 byte, 0.0% gc time)
  tp4 : 0.0 sec (0 allocations: 0 byte, 0.0% gc time)
calc_wtdll!:   0.867934 sec (511.856 k allocations: 28.285 MB, 0.0% gc time)
calc_wljj!:    0.003576 sec (6 allocations: 96 byte, 0.0% gc time)
mult_prefac!:  0.0 sec (0 allocations: 0 byte, 0.0% gc time)
convert:       0.0 sec (0 allocations: 0 byte, 0.0% gc time)
write:         0.003971 sec (0 allocations: 0 byte, 0.0% gc time)
test_rand_2f1: 0.0 sec (0 allocations: 0 byte, 0.0% gc time)
Closing outfile out/Ml21-cache.bin...   0.000009 seconds
  1.475215 seconds (348.23 k allocations: 21.177 MiB, 4.87% gc time)
make_phi():   0.013591 seconds (8.18 k allocations: 237.844 KiB)
  0.248815 seconds (87.94 k allocations: 4.765 MiB)
tskip:       2.3e-5 sec (0 allocations: 0 byte, 0.0% gc time)
tread:       0.002748 sec (17 allocations: 2.125 KB, 0.0% gc time)
tmultphi:    0.039991 sec (21.564 k allocations: 1.294 MB, 0.0% gc time)
tbrfft:      0.004365 sec (0 allocations: 0 byte, 0.0% gc time)
tmultprefac: 0.003436 sec (0 allocations: 0 byte, 0.0% gc time)
toutfunc:    0.162398 sec (64.716 k allocations: 3.341 MB, 0.0% gc time)
Testing R=1.1 ... passed
Calculating fmax: 
  dlrec    = 4
  dlrecRg1 = -4
  q=1.1, R=1.0:	  0.001638 seconds (3.20 k allocations: 275.344 KiB)

  0.002417 seconds (3.35 k allocations: 311.750 KiB)
ℓ = 1202
Δℓ = 4
ΔℓRg1 = -4
N = 1600
q = 1.1
kmin = 1.0e-5
kmax = 100000.00000000004
χ0 = 0.023029999999999995
RR = RR.tsv
ℓmax = ℓmax.bin
f21 = f21.bin
kmin = 1.0e-5
kmax = 100000.0
dlrec    = 4
dlrecRg1 = -4
Output size: 61465536 bytes = 0.05724424123764038 GiB
Output size: 51264 bytes = 4.774332046508789e-5 GiB
Reading 'out/F21EllCache'...   0.001404 seconds (197 allocations: 84.203 KiB)
ellmax: 1202
lmaxcache: 1202
fell[:,1,1] = ComplexF64[809.6031528389767 - 1.9829558194077161e-13im, 0.0 + 0.0im]
ell 1202, elapsed: 8.0108642578125e-5
ell 1201, elapsed: 0.013624906539916992
ell 1200, elapsed: 0.013374090194702148
ell 1199, elapsed: 0.00044417381286621094
ell 1198, elapsed: 0.0004451274871826172
ell 1197, elapsed: 0.0005648136138916016
ell 1196, elapsed: 0.0005190372467041016
ell 1195, elapsed: 0.0005049705505371094
ell 1194, elapsed: 0.0005290508270263672
ell 1193, elapsed: 0.0005221366882324219
ell 1192, elapsed: 0.000514984130859375
ell 1191, elapsed: 0.0005218982696533203
ell 1190, elapsed: 0.0005331039428710938
ell 1189, elapsed: 0.0005180835723876953
ell 1188, elapsed: 0.0005230903625488281
ell 1187, elapsed: 0.0004839897155761719
ell 1186, elapsed: 0.00045990943908691406
ell 1185, elapsed: 0.00044083595275878906
ell 1184, elapsed: 0.00047397613525390625
ell 1183, elapsed: 0.00045680999755859375
ell 1182, elapsed: 0.00046706199645996094
ell 1181, elapsed: 0.0004601478576660156
ell 1180, elapsed: 0.000453948974609375
ell 1179, elapsed: 0.0004410743713378906
ell 1178, elapsed: 0.0004520416259765625
ell 1177, elapsed: 0.0004589557647705078
ell 1176, elapsed: 0.00043511390686035156
ell 1175, elapsed: 0.00045418739318847656
ell 1174, elapsed: 0.0004570484161376953
ell 1173, elapsed: 0.0004639625549316406
ell 1172, elapsed: 0.0004639625549316406
ell 1171, elapsed: 0.0004551410675048828
ell 1170, elapsed: 0.00045299530029296875
ell 1169, elapsed: 0.0004668235778808594
ell 1168, elapsed: 0.00043582916259765625
ell 1167, elapsed: 0.0004649162292480469
ell 1166, elapsed: 0.00043702125549316406
ell 1165, elapsed: 0.0004601478576660156
ell 1164, elapsed: 0.00045609474182128906
ell 1163, elapsed: 0.000453948974609375
ell 1162, elapsed: 0.0004961490631103516
ell 1161, elapsed: 0.00045800209045410156
ell 1160, elapsed: 0.0004601478576660156
ell 1159, elapsed: 0.00047087669372558594
ell 1158, elapsed: 0.00045680999755859375
ell 1157, elapsed: 0.00045990943908691406
ell 1156, elapsed: 0.0004780292510986328
ell 1155, elapsed: 0.0006768703460693359
ell 1154, elapsed: 0.0005550384521484375
ell 1153, elapsed: 0.0005400180816650391
ell 1152, elapsed: 0.0005388259887695312
ell 1151, elapsed: 0.0005269050598144531
ell 1150, elapsed: 0.000576019287109375
ell 1149, elapsed: 0.0005249977111816406
ell 1148, elapsed: 0.0005321502685546875
ell 1147, elapsed: 0.0005209445953369141
ell 1146, elapsed: 0.0005099773406982422
ell 1145, elapsed: 0.0005371570587158203
ell 1144, elapsed: 0.0006799697875976562
ell 1143, elapsed: 0.0005669593811035156
ell 1142, elapsed: 0.0005159378051757812
ell 1141, elapsed: 0.0005249977111816406
ell 1140, elapsed: 0.0005519390106201172
ell 1139, elapsed: 0.0005240440368652344
ell 1138, elapsed: 0.0005490779876708984
ell 1137, elapsed: 0.0005350112915039062
ell 1136, elapsed: 0.0005409717559814453
ell 1135, elapsed: 0.0005159378051757812
ell 1134, elapsed: 0.0005290508270263672
ell 1133, elapsed: 0.0005168914794921875
ell 1132, elapsed: 0.0005450248718261719
ell 1131, elapsed: 0.0005321502685546875
ell 1130, elapsed: 0.0005369186401367188
ell 1129, elapsed: 0.0005090236663818359
ell 1128, elapsed: 0.0005271434783935547
ell 1127, elapsed: 0.0005068778991699219
ell 1126, elapsed: 0.0005090236663818359
ell 1125, elapsed: 0.0005259513854980469
ell 1124, elapsed: 0.0005311965942382812
ell 1123, elapsed: 0.0005311965942382812
ell 1122, elapsed: 0.000514984130859375
ell 1121, elapsed: 0.00051116943359375
ell 1120, elapsed: 0.0005090236663818359
ell 1119, elapsed: 0.0005371570587158203
ell 1118, elapsed: 0.0005168914794921875
ell 1117, elapsed: 0.0005331039428710938
ell 1116, elapsed: 0.0005190372467041016
ell 1115, elapsed: 0.0004899501800537109
ell 1114, elapsed: 0.0004520416259765625
ell 1113, elapsed: 0.00045800209045410156
ell 1112, elapsed: 0.000453948974609375
ell 1111, elapsed: 0.0004551410675048828
ell 1110, elapsed: 0.000453948974609375
ell 1109, elapsed: 0.00045180320739746094
ell 1108, elapsed: 0.0004649162292480469
ell 1107, elapsed: 0.0004649162292480469
ell 1106, elapsed: 0.0004668235778808594
ell 1105, elapsed: 0.0004649162292480469
ell 1104, elapsed: 0.00045299530029296875
ell 1103, elapsed: 0.00045990943908691406
ell 1102, elapsed: 0.00045299530029296875
ell 1101, elapsed: 0.0004630088806152344
ell 1100, elapsed: 0.00046515464782714844
ell 1099, elapsed: 0.00045990943908691406
ell 1098, elapsed: 0.00045490264892578125
ell 1097, elapsed: 0.0004589557647705078
ell 1096, elapsed: 0.00045800209045410156
ell 1095, elapsed: 0.0004658699035644531
ell 1094, elapsed: 0.000453948974609375
ell 1093, elapsed: 0.0004699230194091797
ell 1092, elapsed: 0.00046706199645996094
ell 1091, elapsed: 0.0004520416259765625
ell 1090, elapsed: 0.0004620552062988281
ell 1089, elapsed: 0.0004661083221435547
ell 1088, elapsed: 0.0004649162292480469
ell 1087, elapsed: 0.0004551410675048828
ell 1086, elapsed: 0.0004987716674804688
ell 1085, elapsed: 0.0004410743713378906
ell 1084, elapsed: 0.0004558563232421875
ell 1083, elapsed: 0.0004570484161376953
ell 1082, elapsed: 0.00045490264892578125
ell 1081, elapsed: 0.00045299530029296875
ell 1080, elapsed: 0.00048089027404785156
ell 1079, elapsed: 0.00045490264892578125
ell 1078, elapsed: 0.0004649162292480469
ell 1077, elapsed: 0.0004589557647705078
ell 1076, elapsed: 0.0004639625549316406
ell 1075, elapsed: 0.00046181678771972656
ell 1074, elapsed: 0.00045299530029296875
ell 1073, elapsed: 0.0004611015319824219
ell 1072, elapsed: 0.00045490264892578125
ell 1071, elapsed: 0.0004730224609375
ell 1070, elapsed: 0.0004639625549316406
ell 1069, elapsed: 0.00045299530029296875
ell 1068, elapsed: 0.0004668235778808594
ell 1067, elapsed: 0.0004589557647705078
ell 1066, elapsed: 0.0006589889526367188
ell 1065, elapsed: 0.0005009174346923828
ell 1064, elapsed: 0.0004520416259765625
ell 1063, elapsed: 0.000453948974609375
ell 1062, elapsed: 0.0004589557647705078
ell 1061, elapsed: 0.00045609474182128906
ell 1060, elapsed: 0.0006611347198486328
ell 1059, elapsed: 0.0004909038543701172
ell 1058, elapsed: 0.0004780292510986328
ell 1057, elapsed: 0.0004420280456542969
ell 1056, elapsed: 0.00045609474182128906
ell 1055, elapsed: 0.0004649162292480469
ell 1054, elapsed: 0.00045680999755859375
ell 1053, elapsed: 0.0004570484161376953
ell 1052, elapsed: 0.0004570484161376953
ell 1051, elapsed: 0.0004730224609375
ell 1050, elapsed: 0.0004551410675048828
ell 1049, elapsed: 0.00045609474182128906
ell 1048, elapsed: 0.0004639625549316406
ell 1047, elapsed: 0.0004630088806152344
ell 1046, elapsed: 0.00046706199645996094
ell 1045, elapsed: 0.0005788803100585938
ell 1044, elapsed: 0.0005578994750976562
ell 1043, elapsed: 0.0004680156707763672
ell 1042, elapsed: 0.0004570484161376953
ell 1041, elapsed: 0.00045990943908691406
ell 1040, elapsed: 0.0004508495330810547
ell 1039, elapsed: 0.00045609474182128906
ell 1038, elapsed: 0.00045609474182128906
ell 1037, elapsed: 0.0004649162292480469
ell 1036, elapsed: 0.0004601478576660156
ell 1035, elapsed: 0.000453948974609375
ell 1034, elapsed: 0.00045800209045410156
ell 1033, elapsed: 0.00047087669372558594
ell 1032, elapsed: 0.00045180320739746094
ell 1031, elapsed: 0.0004661083221435547
ell 1030, elapsed: 0.0007009506225585938
ell 1029, elapsed: 0.0004699230194091797
ell 1028, elapsed: 0.0004649162292480469
ell 1027, elapsed: 0.0004611015319824219
ell 1026, elapsed: 0.00047588348388671875
ell 1025, elapsed: 0.0005321502685546875
ell 1024, elapsed: 0.0006160736083984375
ell 1023, elapsed: 0.0004699230194091797
ell 1022, elapsed: 0.0006461143493652344
ell 1021, elapsed: 0.0005059242248535156
ell 1020, elapsed: 0.0004410743713378906
ell 1019, elapsed: 0.0004889965057373047
ell 1018, elapsed: 0.0004661083221435547
ell 1017, elapsed: 0.00047087669372558594
ell 1016, elapsed: 0.00044417381286621094
ell 1015, elapsed: 0.0007059574127197266
ell 1014, elapsed: 0.0004661083221435547
ell 1013, elapsed: 0.0004558563232421875
ell 1012, elapsed: 0.0004570484161376953
ell 1011, elapsed: 0.0004611015319824219
ell 1010, elapsed: 0.0004711151123046875
ell 1009, elapsed: 0.0004570484161376953
ell 1008, elapsed: 0.00045609474182128906
ell 1007, elapsed: 0.0005419254302978516
ell 1006, elapsed: 0.0005948543548583984
ell 1005, elapsed: 0.00045800209045410156
ell 1004, elapsed: 0.0004570484161376953
ell 1003, elapsed: 0.0004699230194091797
ell 1002, elapsed: 0.00047016143798828125
ell 1001, elapsed: 0.0004730224609375
ell 1000, elapsed: 0.0004451274871826172
ell 999, elapsed: 0.0004620552062988281
ell 998, elapsed: 0.0004718303680419922
ell 997, elapsed: 0.00045800209045410156
ell 996, elapsed: 0.0004711151123046875
ell 995, elapsed: 0.0006198883056640625
ell 994, elapsed: 0.0004761219024658203
ell 993, elapsed: 0.0004611015319824219
ell 992, elapsed: 0.0004601478576660156
ell 991, elapsed: 0.00048422813415527344
ell 990, elapsed: 0.0004611015319824219
ell 989, elapsed: 0.0004849433898925781
ell 988, elapsed: 0.00045990943908691406
ell 987, elapsed: 0.00045990943908691406
ell 986, elapsed: 0.0004630088806152344
ell 985, elapsed: 0.0004591941833496094
ell 984, elapsed: 0.0004570484161376953
ell 983, elapsed: 0.00046706199645996094
ell 982, elapsed: 0.00046896934509277344
ell 981, elapsed: 0.0004639625549316406
ell 980, elapsed: 0.00045609474182128906
ell 979, elapsed: 0.0004699230194091797
ell 978, elapsed: 0.00045490264892578125
ell 977, elapsed: 0.0004630088806152344
ell 976, elapsed: 0.0004489421844482422
ell 975, elapsed: 0.0004630088806152344
ell 974, elapsed: 0.00044918060302734375
ell 973, elapsed: 0.0004818439483642578
ell 972, elapsed: 0.0004589557647705078
ell 971, elapsed: 0.0004639625549316406
ell 970, elapsed: 0.0004680156707763672
ell 969, elapsed: 0.00047397613525390625
ell 968, elapsed: 0.00046515464782714844
ell 967, elapsed: 0.0004780292510986328
ell 966, elapsed: 0.0004630088806152344
ell 965, elapsed: 0.0004649162292480469
ell 964, elapsed: 0.00047016143798828125
ell 963, elapsed: 0.0004608631134033203
ell 962, elapsed: 0.0004649162292480469
ell 961, elapsed: 0.0004558563232421875
ell 960, elapsed: 0.0004830360412597656
ell 959, elapsed: 0.0004940032958984375
ell 958, elapsed: 0.00046181678771972656
ell 957, elapsed: 0.00045800209045410156
ell 956, elapsed: 0.0004639625549316406
ell 955, elapsed: 0.0004570484161376953
ell 954, elapsed: 0.0004749298095703125
ell 953, elapsed: 0.00046706199645996094
ell 952, elapsed: 0.0004858970642089844
ell 951, elapsed: 0.0004680156707763672
ell 950, elapsed: 0.0004620552062988281
ell 949, elapsed: 0.0004639625549316406
ell 948, elapsed: 0.00045680999755859375
ell 947, elapsed: 0.00045490264892578125
ell 946, elapsed: 0.0004611015319824219
ell 945, elapsed: 0.0004620552062988281
ell 944, elapsed: 0.00045800209045410156
ell 943, elapsed: 0.0004570484161376953
ell 942, elapsed: 0.00046706199645996094
ell 941, elapsed: 0.0004558563232421875
ell 940, elapsed: 0.00045299530029296875
ell 939, elapsed: 0.000457763671875
ell 938, elapsed: 0.0004680156707763672
ell 937, elapsed: 0.0004601478576660156
ell 936, elapsed: 0.00045418739318847656
ell 935, elapsed: 0.00045490264892578125
ell 934, elapsed: 0.00045990943908691406
ell 933, elapsed: 0.0004570484161376953
ell 932, elapsed: 0.0004611015319824219
ell 931, elapsed: 0.00047707557678222656
ell 930, elapsed: 0.00045180320739746094
ell 929, elapsed: 0.00045800209045410156
ell 928, elapsed: 0.00045299530029296875
ell 927, elapsed: 0.0004611015319824219
ell 926, elapsed: 0.00045108795166015625
ell 925, elapsed: 0.00045490264892578125
ell 924, elapsed: 0.0004620552062988281
ell 923, elapsed: 0.0004730224609375
ell 922, elapsed: 0.0004608631134033203
ell 921, elapsed: 0.000453948974609375
ell 920, elapsed: 0.0004551410675048828
ell 919, elapsed: 0.00045490264892578125
ell 918, elapsed: 0.0004458427429199219
ell 917, elapsed: 0.00045800209045410156
ell 916, elapsed: 0.0004749298095703125
ell 915, elapsed: 0.0004627704620361328
ell 914, elapsed: 0.0004630088806152344
ell 913, elapsed: 0.0004420280456542969
ell 912, elapsed: 0.0004520416259765625
ell 911, elapsed: 0.0004401206970214844
ell 910, elapsed: 0.0004558563232421875
ell 909, elapsed: 0.00047707557678222656
ell 908, elapsed: 0.0004420280456542969
ell 907, elapsed: 0.0004680156707763672
ell 906, elapsed: 0.0004620552062988281
ell 905, elapsed: 0.00047016143798828125
ell 904, elapsed: 0.00045609474182128906
ell 903, elapsed: 0.0004558563232421875
ell 902, elapsed: 0.0004570484161376953
ell 901, elapsed: 0.00046896934509277344
ell 900, elapsed: 0.0004639625549316406
ell 899, elapsed: 0.0004620552062988281
ell 898, elapsed: 0.0004570484161376953
ell 897, elapsed: 0.0004620552062988281
ell 896, elapsed: 0.00045490264892578125
ell 895, elapsed: 0.0004620552062988281
ell 894, elapsed: 0.00047206878662109375
ell 893, elapsed: 0.00045990943908691406
ell 892, elapsed: 0.0004761219024658203
ell 891, elapsed: 0.0004630088806152344
ell 890, elapsed: 0.0004680156707763672
ell 889, elapsed: 0.0004668235778808594
ell 888, elapsed: 0.00047397613525390625
ell 887, elapsed: 0.00047707557678222656
ell 886, elapsed: 0.0004551410675048828
ell 885, elapsed: 0.0004620552062988281
ell 884, elapsed: 0.00045490264892578125
ell 883, elapsed: 0.00045108795166015625
ell 882, elapsed: 0.00046896934509277344
ell 881, elapsed: 0.0004642009735107422
ell 880, elapsed: 0.00045990943908691406
ell 879, elapsed: 0.0004658699035644531
ell 878, elapsed: 0.0004551410675048828
ell 877, elapsed: 0.0004711151123046875
ell 876, elapsed: 0.0004639625549316406
ell 875, elapsed: 0.0004611015319824219
ell 874, elapsed: 0.00044608116149902344
ell 873, elapsed: 0.00047206878662109375
ell 872, elapsed: 0.0005080699920654297
ell 871, elapsed: 0.000492095947265625
ell 870, elapsed: 0.0004949569702148438
ell 869, elapsed: 0.0004608631134033203
ell 868, elapsed: 0.00045609474182128906
ell 867, elapsed: 0.0004611015319824219
ell 866, elapsed: 0.00047087669372558594
ell 865, elapsed: 0.0004799365997314453
ell 864, elapsed: 0.0006010532379150391
ell 863, elapsed: 0.0004990100860595703
ell 862, elapsed: 0.000453948974609375
ell 861, elapsed: 0.0004611015319824219
ell 860, elapsed: 0.0004649162292480469
ell 859, elapsed: 0.00047516822814941406
ell 858, elapsed: 0.0004868507385253906
ell 857, elapsed: 0.0004658699035644531
ell 856, elapsed: 0.0004611015319824219
ell 855, elapsed: 0.0004699230194091797
ell 854, elapsed: 0.0004680156707763672
ell 853, elapsed: 0.0004730224609375
ell 852, elapsed: 0.00046896934509277344
ell 851, elapsed: 0.00048089027404785156
ell 850, elapsed: 0.0004680156707763672
ell 849, elapsed: 0.0004749298095703125
ell 848, elapsed: 0.0004680156707763672
ell 847, elapsed: 0.0004730224609375
ell 846, elapsed: 0.0004730224609375
ell 845, elapsed: 0.0004780292510986328
ell 844, elapsed: 0.00047588348388671875
ell 843, elapsed: 0.00046896934509277344
ell 842, elapsed: 0.0004620552062988281
ell 841, elapsed: 0.00045680999755859375
ell 840, elapsed: 0.0004780292510986328
ell 839, elapsed: 0.00046896934509277344
ell 838, elapsed: 0.00046706199645996094
ell 837, elapsed: 0.00047898292541503906
ell 836, elapsed: 0.00046181678771972656
ell 835, elapsed: 0.0004661083221435547
ell 834, elapsed: 0.0004680156707763672
ell 833, elapsed: 0.00047206878662109375
ell 832, elapsed: 0.00047707557678222656
ell 831, elapsed: 0.0004990100860595703
ell 830, elapsed: 0.00046896934509277344
ell 829, elapsed: 0.0004658699035644531
ell 828, elapsed: 0.00047397613525390625
ell 827, elapsed: 0.00046515464782714844
ell 826, elapsed: 0.00047016143798828125
ell 825, elapsed: 0.0004611015319824219
ell 824, elapsed: 0.0004711151123046875
ell 823, elapsed: 0.00047397613525390625
ell 822, elapsed: 0.0004761219024658203
ell 821, elapsed: 0.00047087669372558594
ell 820, elapsed: 0.0004699230194091797
ell 819, elapsed: 0.0004630088806152344
ell 818, elapsed: 0.00045609474182128906
ell 817, elapsed: 0.0005562305450439453
ell 816, elapsed: 0.0006039142608642578
ell 815, elapsed: 0.0004730224609375
ell 814, elapsed: 0.00045800209045410156
ell 813, elapsed: 0.00046706199645996094
ell 812, elapsed: 0.00046706199645996094
ell 811, elapsed: 0.00047016143798828125
ell 810, elapsed: 0.0004630088806152344
ell 809, elapsed: 0.0004718303680419922
ell 808, elapsed: 0.0004611015319824219
ell 807, elapsed: 0.0004639625549316406
ell 806, elapsed: 0.0004699230194091797
ell 805, elapsed: 0.0004658699035644531
ell 804, elapsed: 0.0004718303680419922
ell 803, elapsed: 0.0004680156707763672
ell 802, elapsed: 0.0005729198455810547
ell 801, elapsed: 0.000576019287109375
ell 800, elapsed: 0.0004439353942871094
ell 799, elapsed: 0.00047206878662109375
ell 798, elapsed: 0.0004589557647705078
ell 797, elapsed: 0.0004649162292480469
ell 796, elapsed: 0.0004668235778808594
ell 795, elapsed: 0.0004811286926269531
ell 794, elapsed: 0.00046515464782714844
ell 793, elapsed: 0.00047206878662109375
ell 792, elapsed: 0.0004718303680419922
ell 791, elapsed: 0.0006248950958251953
ell 790, elapsed: 0.0004940032958984375
ell 789, elapsed: 0.00047206878662109375
ell 788, elapsed: 0.0004749298095703125
ell 787, elapsed: 0.0004470348358154297
ell 786, elapsed: 0.0004658699035644531
ell 785, elapsed: 0.0004639625549316406
ell 784, elapsed: 0.0004680156707763672
ell 783, elapsed: 0.00046706199645996094
ell 782, elapsed: 0.00046515464782714844
ell 781, elapsed: 0.0004742145538330078
ell 780, elapsed: 0.0004570484161376953
ell 779, elapsed: 0.00046706199645996094
ell 778, elapsed: 0.0004630088806152344
ell 777, elapsed: 0.0004780292510986328
ell 776, elapsed: 0.0004630088806152344
ell 775, elapsed: 0.0004680156707763672
ell 774, elapsed: 0.0004820823669433594
ell 773, elapsed: 0.0004639625549316406
ell 772, elapsed: 0.00045013427734375
ell 771, elapsed: 0.0004601478576660156
ell 770, elapsed: 0.00046706199645996094
ell 769, elapsed: 0.00047087669372558594
ell 768, elapsed: 0.0004661083221435547
ell 767, elapsed: 0.0004780292510986328
ell 766, elapsed: 0.000469207763671875
ell 765, elapsed: 0.00044417381286621094
ell 764, elapsed: 0.0005640983581542969
ell 763, elapsed: 0.0005750656127929688
ell 762, elapsed: 0.0004520416259765625
ell 761, elapsed: 0.0004680156707763672
ell 760, elapsed: 0.0006170272827148438
ell 759, elapsed: 0.0005228519439697266
ell 758, elapsed: 0.0004649162292480469
ell 757, elapsed: 0.00045013427734375
ell 756, elapsed: 0.0005619525909423828
ell 755, elapsed: 0.0005500316619873047
ell 754, elapsed: 0.0004849433898925781
ell 753, elapsed: 0.0004661083221435547
ell 752, elapsed: 0.0004980564117431641
ell 751, elapsed: 0.00045609474182128906
ell 750, elapsed: 0.0004820823669433594
ell 749, elapsed: 0.0004451274871826172
ell 748, elapsed: 0.00046515464782714844
ell 747, elapsed: 0.0004799365997314453
ell 746, elapsed: 0.0004780292510986328
ell 745, elapsed: 0.00046896934509277344
ell 744, elapsed: 0.00046706199645996094
ell 743, elapsed: 0.00046706199645996094
ell 742, elapsed: 0.00046896934509277344
ell 741, elapsed: 0.000476837158203125
ell 740, elapsed: 0.0004830360412597656
ell 739, elapsed: 0.0004730224609375
ell 738, elapsed: 0.0004489421844482422
ell 737, elapsed: 0.0004620552062988281
ell 736, elapsed: 0.00045990943908691406
ell 735, elapsed: 0.0004668235778808594
ell 734, elapsed: 0.0004642009735107422
ell 733, elapsed: 0.0004711151123046875
ell 732, elapsed: 0.00047707557678222656
ell 731, elapsed: 0.00046896934509277344
ell 730, elapsed: 0.00045990943908691406
ell 729, elapsed: 0.00046706199645996094
ell 728, elapsed: 0.0004589557647705078
ell 727, elapsed: 0.00047206878662109375
ell 726, elapsed: 0.0004649162292480469
ell 725, elapsed: 0.000476837158203125
ell 724, elapsed: 0.0004661083221435547
ell 723, elapsed: 0.00047206878662109375
ell 722, elapsed: 0.0004711151123046875
ell 721, elapsed: 0.0004661083221435547
ell 720, elapsed: 0.0004630088806152344
ell 719, elapsed: 0.0004749298095703125
ell 718, elapsed: 0.0004589557647705078
ell 717, elapsed: 0.0005419254302978516
ell 716, elapsed: 0.0005800724029541016
ell 715, elapsed: 0.0004730224609375
ell 714, elapsed: 0.0004611015319824219
ell 713, elapsed: 0.0004699230194091797
ell 712, elapsed: 0.0004661083221435547
ell 711, elapsed: 0.0004730224609375
ell 710, elapsed: 0.0004630088806152344
ell 709, elapsed: 0.0004649162292480469
ell 708, elapsed: 0.00047206878662109375
ell 707, elapsed: 0.0004649162292480469
ell 706, elapsed: 0.00046706199645996094
ell 705, elapsed: 0.0004718303680419922
ell 704, elapsed: 0.00048804283142089844
ell 703, elapsed: 0.0004749298095703125
ell 702, elapsed: 0.00046896934509277344
ell 701, elapsed: 0.0004680156707763672
ell 700, elapsed: 0.0004718303680419922
ell 699, elapsed: 0.0004699230194091797
ell 698, elapsed: 0.0004749298095703125
ell 697, elapsed: 0.000492095947265625
ell 696, elapsed: 0.00047898292541503906
ell 695, elapsed: 0.0004730224609375
ell 694, elapsed: 0.0004711151123046875
ell 693, elapsed: 0.00047898292541503906
ell 692, elapsed: 0.0004680156707763672
ell 691, elapsed: 0.0004749298095703125
ell 690, elapsed: 0.0004870891571044922
ell 689, elapsed: 0.00046896934509277344
ell 688, elapsed: 0.00047707557678222656
ell 687, elapsed: 0.0004680156707763672
ell 686, elapsed: 0.0004811286926269531
ell 685, elapsed: 0.0004699230194091797
ell 684, elapsed: 0.00046896934509277344
ell 683, elapsed: 0.0004820823669433594
ell 682, elapsed: 0.0004520416259765625
ell 681, elapsed: 0.00047707557678222656
ell 680, elapsed: 0.0004658699035644531
ell 679, elapsed: 0.0004661083221435547
ell 678, elapsed: 0.00048089027404785156
ell 677, elapsed: 0.00047016143798828125
ell 676, elapsed: 0.0004940032958984375
ell 675, elapsed: 0.00044918060302734375
ell 674, elapsed: 0.0004410743713378906
ell 673, elapsed: 0.0004761219024658203
ell 672, elapsed: 0.00047397613525390625
ell 671, elapsed: 0.00048613548278808594
ell 670, elapsed: 0.00046706199645996094
ell 669, elapsed: 0.0004801750183105469
ell 668, elapsed: 0.0004780292510986328
ell 667, elapsed: 0.0004630088806152344
ell 666, elapsed: 0.0004570484161376953
ell 665, elapsed: 0.0004611015319824219
ell 664, elapsed: 0.0004489421844482422
ell 663, elapsed: 0.0004570484161376953
ell 662, elapsed: 0.0004558563232421875
ell 661, elapsed: 0.0004591941833496094
ell 660, elapsed: 0.0004520416259765625
ell 659, elapsed: 0.0004639625549316406
ell 658, elapsed: 0.0004558563232421875
ell 657, elapsed: 0.0004611015319824219
ell 656, elapsed: 0.0004620552062988281
ell 655, elapsed: 0.00049591064453125
ell 654, elapsed: 0.0005140304565429688
ell 653, elapsed: 0.0004980564117431641
ell 652, elapsed: 0.00048279762268066406
ell 651, elapsed: 0.00048089027404785156
ell 650, elapsed: 0.0004661083221435547
ell 649, elapsed: 0.0004680156707763672
ell 648, elapsed: 0.0004680156707763672
ell 647, elapsed: 0.00047206878662109375
ell 646, elapsed: 0.00045990943908691406
ell 645, elapsed: 0.0004668235778808594
ell 644, elapsed: 0.0004661083221435547
ell 643, elapsed: 0.0004551410675048828
ell 642, elapsed: 0.0004608631134033203
ell 641, elapsed: 0.0004749298095703125
ell 640, elapsed: 0.0004630088806152344
ell 639, elapsed: 0.00044918060302734375
ell 638, elapsed: 0.0004558563232421875
ell 637, elapsed: 0.0006439685821533203
ell 636, elapsed: 0.0005249977111816406
ell 635, elapsed: 0.0004379749298095703
ell 634, elapsed: 0.0004620552062988281
ell 633, elapsed: 0.0005309581756591797
ell 632, elapsed: 0.0005910396575927734
ell 631, elapsed: 0.0004711151123046875
ell 630, elapsed: 0.0005350112915039062
ell 629, elapsed: 0.0005600452423095703
ell 628, elapsed: 0.0004971027374267578
ell 627, elapsed: 0.0005681514739990234
ell 626, elapsed: 0.0005590915679931641
ell 625, elapsed: 0.0006320476531982422
ell 624, elapsed: 0.0005118846893310547
ell 623, elapsed: 0.00046181678771972656
ell 622, elapsed: 0.0004749298095703125
ell 621, elapsed: 0.00045299530029296875
ell 620, elapsed: 0.0004642009735107422
ell 619, elapsed: 0.0004968643188476562
ell 618, elapsed: 0.0004639625549316406
ell 617, elapsed: 0.00045990943908691406
ell 616, elapsed: 0.00045800209045410156
ell 615, elapsed: 0.0004589557647705078
ell 614, elapsed: 0.0004730224609375
ell 613, elapsed: 0.0004608631134033203
ell 612, elapsed: 0.00046515464782714844
ell 611, elapsed: 0.0004639625549316406
ell 610, elapsed: 0.00047588348388671875
ell 609, elapsed: 0.0004711151123046875
ell 608, elapsed: 0.0004611015319824219
ell 607, elapsed: 0.0004649162292480469
ell 606, elapsed: 0.0004589557647705078
ell 605, elapsed: 0.0004639625549316406
ell 604, elapsed: 0.0004730224609375
ell 603, elapsed: 0.0004589557647705078
ell 602, elapsed: 0.0004630088806152344
ell 601, elapsed: 0.0004780292510986328
ell 600, elapsed: 0.0004630088806152344
ell 599, elapsed: 0.0004630088806152344
ell 598, elapsed: 0.0004420280456542969
ell 597, elapsed: 0.0004439353942871094
ell 596, elapsed: 0.0004639625549316406
ell 595, elapsed: 0.0005919933319091797
ell 594, elapsed: 0.0005087852478027344
ell 593, elapsed: 0.000453948974609375
ell 592, elapsed: 0.0004601478576660156
ell 591, elapsed: 0.0004928112030029297
ell 590, elapsed: 0.0006160736083984375
ell 589, elapsed: 0.0005371570587158203
ell 588, elapsed: 0.00045800209045410156
ell 587, elapsed: 0.0004630088806152344
ell 586, elapsed: 0.0004680156707763672
ell 585, elapsed: 0.00047397613525390625
ell 584, elapsed: 0.00044083595275878906
ell 583, elapsed: 0.0004630088806152344
ell 582, elapsed: 0.0004649162292480469
ell 581, elapsed: 0.00045800209045410156
ell 580, elapsed: 0.00046896934509277344
ell 579, elapsed: 0.0004718303680419922
ell 578, elapsed: 0.00047016143798828125
ell 577, elapsed: 0.0004639625549316406
ell 576, elapsed: 0.0004608631134033203
ell 575, elapsed: 0.0004630088806152344
ell 574, elapsed: 0.0004658699035644531
ell 573, elapsed: 0.0004680156707763672
ell 572, elapsed: 0.000476837158203125
ell 571, elapsed: 0.0004620552062988281
ell 570, elapsed: 0.00044798851013183594
ell 569, elapsed: 0.0004839897155761719
ell 568, elapsed: 0.0004749298095703125
ell 567, elapsed: 0.0004639625549316406
ell 566, elapsed: 0.0004780292510986328
ell 565, elapsed: 0.0004849433898925781
ell 564, elapsed: 0.0004649162292480469
ell 563, elapsed: 0.00047516822814941406
ell 562, elapsed: 0.00046896934509277344
ell 561, elapsed: 0.0004658699035644531
ell 560, elapsed: 0.0004699230194091797
ell 559, elapsed: 0.0004630088806152344
ell 558, elapsed: 0.00048089027404785156
ell 557, elapsed: 0.0004611015319824219
ell 556, elapsed: 0.0004639625549316406
ell 555, elapsed: 0.0004851818084716797
ell 554, elapsed: 0.0004639625549316406
ell 553, elapsed: 0.0004899501800537109
ell 552, elapsed: 0.00047206878662109375
ell 551, elapsed: 0.00047397613525390625
ell 550, elapsed: 0.00047087669372558594
ell 549, elapsed: 0.0004620552062988281
ell 548, elapsed: 0.0004711151123046875
ell 547, elapsed: 0.00045990943908691406
ell 546, elapsed: 0.00045990943908691406
ell 545, elapsed: 0.00046706199645996094
ell 544, elapsed: 0.0004591941833496094
ell 543, elapsed: 0.0004658699035644531
ell 542, elapsed: 0.0004620552062988281
ell 541, elapsed: 0.0004620552062988281
ell 540, elapsed: 0.0004639625549316406
ell 539, elapsed: 0.0004668235778808594
ell 538, elapsed: 0.0004680156707763672
ell 537, elapsed: 0.0006330013275146484
ell 536, elapsed: 0.0005350112915039062
ell 535, elapsed: 0.0004639625549316406
ell 534, elapsed: 0.00045490264892578125
ell 533, elapsed: 0.0004458427429199219
ell 532, elapsed: 0.00043511390686035156
ell 531, elapsed: 0.0004470348358154297
ell 530, elapsed: 0.000431060791015625
ell 529, elapsed: 0.0004558563232421875
ell 528, elapsed: 0.00043511390686035156
ell 527, elapsed: 0.00043010711669921875
ell 526, elapsed: 0.00048089027404785156
ell 525, elapsed: 0.00048089027404785156
ell 524, elapsed: 0.0004899501800537109
ell 523, elapsed: 0.0005240440368652344
ell 522, elapsed: 0.0004909038543701172
ell 521, elapsed: 0.0005049705505371094
ell 520, elapsed: 0.0004870891571044922
ell 519, elapsed: 0.00047588348388671875
ell 518, elapsed: 0.0004849433898925781
ell 517, elapsed: 0.0005209445953369141
ell 516, elapsed: 0.0005140304565429688
ell 515, elapsed: 0.00047898292541503906
ell 514, elapsed: 0.0005099773406982422
ell 513, elapsed: 0.0004940032958984375
ell 512, elapsed: 0.0004980564117431641
ell 511, elapsed: 0.0004930496215820312
ell 510, elapsed: 0.0005071163177490234
ell 509, elapsed: 0.0005178451538085938
ell 508, elapsed: 0.0006330013275146484
ell 507, elapsed: 0.0006589889526367188
ell 506, elapsed: 0.000514984130859375
ell 505, elapsed: 0.0005018711090087891
ell 504, elapsed: 0.0005049705505371094
ell 503, elapsed: 0.0005002021789550781
ell 502, elapsed: 0.0004940032958984375
ell 501, elapsed: 0.0006639957427978516
ell 500, elapsed: 0.00049591064453125
ell 499, elapsed: 0.0005040168762207031
ell 498, elapsed: 0.0004999637603759766
ell 497, elapsed: 0.0004980564117431641
ell 496, elapsed: 0.0004911422729492188
ell 495, elapsed: 0.0005018711090087891
ell 494, elapsed: 0.00048613548278808594
ell 493, elapsed: 0.0004899501800537109
ell 492, elapsed: 0.0004990100860595703
ell 491, elapsed: 0.000492095947265625
ell 490, elapsed: 0.0005218982696533203
ell 489, elapsed: 0.0005099773406982422
ell 488, elapsed: 0.0004978179931640625
ell 487, elapsed: 0.0004918575286865234
ell 486, elapsed: 0.0004520416259765625
ell 485, elapsed: 0.0005049705505371094
ell 484, elapsed: 0.0005249977111816406
ell 483, elapsed: 0.0004990100860595703
ell 482, elapsed: 0.0005080699920654297
ell 481, elapsed: 0.0004949569702148438
ell 480, elapsed: 0.0004911422729492188
ell 479, elapsed: 0.0005829334259033203
ell 478, elapsed: 0.0005140304565429688
ell 477, elapsed: 0.0005080699920654297
ell 476, elapsed: 0.0004949569702148438
ell 475, elapsed: 0.000492095947265625
ell 474, elapsed: 0.0005068778991699219
ell 473, elapsed: 0.0004899501800537109
ell 472, elapsed: 0.0005049705505371094
ell 471, elapsed: 0.0004971027374267578
ell 470, elapsed: 0.0004911422729492188
ell 469, elapsed: 0.0005021095275878906
ell 468, elapsed: 0.0004980564117431641
ell 467, elapsed: 0.0005130767822265625
ell 466, elapsed: 0.000492095947265625
ell 465, elapsed: 0.00048804283142089844
ell 464, elapsed: 0.0004999637603759766
ell 463, elapsed: 0.0005011558532714844
ell 462, elapsed: 0.0005109310150146484
ell 461, elapsed: 0.0004591941833496094
ell 460, elapsed: 0.0004420280456542969
ell 459, elapsed: 0.0004439353942871094
ell 458, elapsed: 0.0004329681396484375
ell 457, elapsed: 0.00045013427734375
ell 456, elapsed: 0.0004329681396484375
ell 455, elapsed: 0.00045013427734375
ell 454, elapsed: 0.0004360675811767578
ell 453, elapsed: 0.0004551410675048828
ell 452, elapsed: 0.00045108795166015625
ell 451, elapsed: 0.00043892860412597656
ell 450, elapsed: 0.00045299530029296875
ell 449, elapsed: 0.00042891502380371094
ell 448, elapsed: 0.00045299530029296875
ell 447, elapsed: 0.00044608116149902344
ell 446, elapsed: 0.0005021095275878906
ell 445, elapsed: 0.0005879402160644531
ell 444, elapsed: 0.0006630420684814453
ell 443, elapsed: 0.0004999637603759766
ell 442, elapsed: 0.0005118846893310547
ell 441, elapsed: 0.0004811286926269531
ell 440, elapsed: 0.0005130767822265625
ell 439, elapsed: 0.00048089027404785156
ell 438, elapsed: 0.0004749298095703125
ell 437, elapsed: 0.0004889965057373047
ell 436, elapsed: 0.00047707557678222656
ell 435, elapsed: 0.00048804283142089844
ell 434, elapsed: 0.0005061626434326172
ell 433, elapsed: 0.0005071163177490234
ell 432, elapsed: 0.0005080699920654297
ell 431, elapsed: 0.0004928112030029297
ell 430, elapsed: 0.0004849433898925781
ell 429, elapsed: 0.0005071163177490234
ell 428, elapsed: 0.000492095947265625
ell 427, elapsed: 0.0005099773406982422
ell 426, elapsed: 0.0005059242248535156
ell 425, elapsed: 0.00051116943359375
ell 424, elapsed: 0.0005068778991699219
ell 423, elapsed: 0.0005068778991699219
ell 422, elapsed: 0.0005040168762207031
ell 421, elapsed: 0.0005059242248535156
ell 420, elapsed: 0.0005090236663818359
ell 419, elapsed: 0.0005049705505371094
ell 418, elapsed: 0.0005390644073486328
ell 417, elapsed: 0.0005068778991699219
ell 416, elapsed: 0.0004999637603759766
ell 415, elapsed: 0.0005269050598144531
ell 414, elapsed: 0.0005052089691162109
ell 413, elapsed: 0.0005071163177490234
ell 412, elapsed: 0.0005199909210205078
ell 411, elapsed: 0.0005049705505371094
ell 410, elapsed: 0.0005009174346923828
ell 409, elapsed: 0.0005011558532714844
ell 408, elapsed: 0.0005059242248535156
ell 407, elapsed: 0.0005230903625488281
ell 406, elapsed: 0.0005910396575927734
ell 405, elapsed: 0.0005638599395751953
ell 404, elapsed: 0.0004940032958984375
ell 403, elapsed: 0.0005040168762207031
ell 402, elapsed: 0.0004930496215820312
ell 401, elapsed: 0.0005030632019042969
ell 400, elapsed: 0.0007100105285644531
ell 399, elapsed: 0.00048089027404785156
ell 398, elapsed: 0.0005009174346923828
ell 397, elapsed: 0.0004999637603759766
ell 396, elapsed: 0.0005118846893310547
ell 395, elapsed: 0.0005080699920654297
ell 394, elapsed: 0.0004980564117431641
ell 393, elapsed: 0.0005009174346923828
ell 392, elapsed: 0.0004999637603759766
ell 391, elapsed: 0.0007450580596923828
ell 390, elapsed: 0.0005090236663818359
ell 389, elapsed: 0.0004949569702148438
ell 388, elapsed: 0.0005040168762207031
ell 387, elapsed: 0.0006971359252929688
ell 386, elapsed: 0.0005099773406982422
ell 385, elapsed: 0.0004940032958984375
ell 384, elapsed: 0.0005080699920654297
ell 383, elapsed: 0.000698089599609375
ell 382, elapsed: 0.0005071163177490234
ell 381, elapsed: 0.0005040168762207031
ell 380, elapsed: 0.0005011558532714844
ell 379, elapsed: 0.0004799365997314453
ell 378, elapsed: 0.0007219314575195312
ell 377, elapsed: 0.0006098747253417969
ell 376, elapsed: 0.0004980564117431641
ell 375, elapsed: 0.0005500316619873047
ell 374, elapsed: 0.0005488395690917969
ell 373, elapsed: 0.0006170272827148438
ell 372, elapsed: 0.00048804283142089844
ell 371, elapsed: 0.0005519390106201172
ell 370, elapsed: 0.0005459785461425781
ell 369, elapsed: 0.000537872314453125
ell 368, elapsed: 0.0005609989166259766
ell 367, elapsed: 0.0004820823669433594
ell 366, elapsed: 0.0004508495330810547
ell 365, elapsed: 0.00043392181396484375
ell 364, elapsed: 0.0004458427429199219
ell 363, elapsed: 0.00043392181396484375
ell 362, elapsed: 0.00044798851013183594
ell 361, elapsed: 0.00045990943908691406
ell 360, elapsed: 0.0004420280456542969
ell 359, elapsed: 0.0004642009735107422
ell 358, elapsed: 0.0004448890686035156
ell 357, elapsed: 0.0004420280456542969
ell 356, elapsed: 0.0004429817199707031
ell 355, elapsed: 0.00043511390686035156
ell 354, elapsed: 0.00043892860412597656
ell 353, elapsed: 0.00044608116149902344
ell 352, elapsed: 0.00043487548828125
ell 351, elapsed: 0.0004811286926269531
ell 350, elapsed: 0.0004379749298095703
ell 349, elapsed: 0.00045013427734375
ell 348, elapsed: 0.0004401206970214844
ell 347, elapsed: 0.0004360675811767578
ell 346, elapsed: 0.0004379749298095703
ell 345, elapsed: 0.00043892860412597656
ell 344, elapsed: 0.00045299530029296875
ell 343, elapsed: 0.00045609474182128906
ell 342, elapsed: 0.0004379749298095703
ell 341, elapsed: 0.00044798851013183594
ell 340, elapsed: 0.0004420280456542969
ell 339, elapsed: 0.00045013427734375
ell 338, elapsed: 0.00043487548828125
ell 337, elapsed: 0.0004448890686035156
ell 336, elapsed: 0.0004470348358154297
ell 335, elapsed: 0.0004551410675048828
ell 334, elapsed: 0.0012218952178955078
ell 333, elapsed: 0.0015180110931396484
ell 332, elapsed: 0.0005071163177490234
ell 331, elapsed: 0.0004088878631591797
ell 330, elapsed: 0.0005221366882324219
ell 329, elapsed: 0.0004630088806152344
ell 328, elapsed: 0.0004451274871826172
ell 327, elapsed: 0.0004470348358154297
ell 326, elapsed: 0.0004329681396484375
ell 325, elapsed: 0.00044798851013183594
ell 324, elapsed: 0.00047206878662109375
ell 323, elapsed: 0.00045299530029296875
ell 322, elapsed: 0.00045609474182128906
ell 321, elapsed: 0.00044918060302734375
ell 320, elapsed: 0.00043487548828125
ell 319, elapsed: 0.00043201446533203125
ell 318, elapsed: 0.0004360675811767578
ell 317, elapsed: 0.0004401206970214844
ell 316, elapsed: 0.00045490264892578125
ell 315, elapsed: 0.0004329681396484375
ell 314, elapsed: 0.00044798851013183594
ell 313, elapsed: 0.00042891502380371094
ell 312, elapsed: 0.0004410743713378906
ell 311, elapsed: 0.0004360675811767578
ell 310, elapsed: 0.00043392181396484375
ell 309, elapsed: 0.0004379749298095703
ell 308, elapsed: 0.00045299530029296875
ell 307, elapsed: 0.0004489421844482422
ell 306, elapsed: 0.0004470348358154297
ell 305, elapsed: 0.00042700767517089844
ell 304, elapsed: 0.00043511390686035156
ell 303, elapsed: 0.00043010711669921875
ell 302, elapsed: 0.00043511390686035156
ell 301, elapsed: 0.0004279613494873047
ell 300, elapsed: 0.002665996551513672
ell 299, elapsed: 0.00045180320739746094
ell 298, elapsed: 0.0004420280456542969
ell 297, elapsed: 0.00043892860412597656
ell 296, elapsed: 0.00043201446533203125
ell 295, elapsed: 0.0004267692565917969
ell 294, elapsed: 0.00044798851013183594
ell 293, elapsed: 0.0004570484161376953
ell 292, elapsed: 0.0004611015319824219
ell 291, elapsed: 0.00045800209045410156
ell 290, elapsed: 0.0004467964172363281
ell 289, elapsed: 0.00047588348388671875
ell 288, elapsed: 0.00044608116149902344
ell 287, elapsed: 0.00045490264892578125
ell 286, elapsed: 0.00043702125549316406
ell 285, elapsed: 0.0004458427429199219
ell 284, elapsed: 0.00044608116149902344
ell 283, elapsed: 0.00045108795166015625
ell 282, elapsed: 0.00045800209045410156
ell 281, elapsed: 0.0005090236663818359
ell 280, elapsed: 0.00045490264892578125
ell 279, elapsed: 0.00044798851013183594
ell 278, elapsed: 0.0004410743713378906
ell 277, elapsed: 0.0005571842193603516
ell 276, elapsed: 0.000553131103515625
ell 275, elapsed: 0.0005428791046142578
ell 274, elapsed: 0.0004849433898925781
ell 273, elapsed: 0.00046181678771972656
ell 272, elapsed: 0.0004639625549316406
ell 271, elapsed: 0.0004699230194091797
ell 270, elapsed: 0.0006060600280761719
ell 269, elapsed: 0.0005159378051757812
ell 268, elapsed: 0.00045990943908691406
ell 267, elapsed: 0.0007638931274414062
ell 266, elapsed: 0.0004649162292480469
ell 265, elapsed: 0.0004649162292480469
ell 264, elapsed: 0.000453948974609375
ell 263, elapsed: 0.00045990943908691406
ell 262, elapsed: 0.00044989585876464844
ell 261, elapsed: 0.00045490264892578125
ell 260, elapsed: 0.00046515464782714844
ell 259, elapsed: 0.0004649162292480469
ell 258, elapsed: 0.00046181678771972656
ell 257, elapsed: 0.00045299530029296875
ell 256, elapsed: 0.0004558563232421875
ell 255, elapsed: 0.00044798851013183594
ell 254, elapsed: 0.00044989585876464844
ell 253, elapsed: 0.00857090950012207
ell 252, elapsed: 0.0004818439483642578
ell 251, elapsed: 0.0004589557647705078
ell 250, elapsed: 0.000453948974609375
ell 249, elapsed: 0.00046515464782714844
ell 248, elapsed: 0.00046181678771972656
ell 247, elapsed: 0.0004680156707763672
ell 246, elapsed: 0.0004680156707763672
ell 245, elapsed: 0.0004639625549316406
ell 244, elapsed: 0.00045800209045410156
ell 243, elapsed: 0.0004601478576660156
ell 242, elapsed: 0.0004630088806152344
ell 241, elapsed: 0.0004620552062988281
ell 240, elapsed: 0.0004589557647705078
ell 239, elapsed: 0.0004608631134033203
ell 238, elapsed: 0.0004749298095703125
ell 237, elapsed: 0.00045299530029296875
ell 236, elapsed: 0.00046896934509277344
ell 235, elapsed: 0.0004551410675048828
ell 234, elapsed: 0.0004630088806152344
ell 233, elapsed: 0.00045490264892578125
ell 232, elapsed: 0.0004489421844482422
ell 231, elapsed: 0.0004551410675048828
ell 230, elapsed: 0.0004718303680419922
ell 229, elapsed: 0.00044989585876464844
ell 228, elapsed: 0.00045680999755859375
ell 227, elapsed: 0.0004470348358154297
ell 226, elapsed: 0.00045013427734375
ell 225, elapsed: 0.00043702125549316406
ell 224, elapsed: 0.00045108795166015625
ell 223, elapsed: 0.0004439353942871094
ell 222, elapsed: 0.00045490264892578125
ell 221, elapsed: 0.000453948974609375
ell 220, elapsed: 0.00043511390686035156
ell 219, elapsed: 0.00043201446533203125
ell 218, elapsed: 0.0005028247833251953
ell 217, elapsed: 0.0005981922149658203
ell 216, elapsed: 0.00043010711669921875
ell 215, elapsed: 0.0005290508270263672
ell 214, elapsed: 0.0005829334259033203
ell 213, elapsed: 0.0004420280456542969
ell 212, elapsed: 0.00043392181396484375
ell 211, elapsed: 0.00044083595275878906
ell 210, elapsed: 0.0004291534423828125
ell 209, elapsed: 0.00043511390686035156
ell 208, elapsed: 0.0004391670227050781
ell 207, elapsed: 0.0006067752838134766
ell 206, elapsed: 0.0006089210510253906
ell 205, elapsed: 0.0006060600280761719
ell 204, elapsed: 0.0004918575286865234
ell 203, elapsed: 0.0004360675811767578
ell 202, elapsed: 0.000431060791015625
ell 201, elapsed: 0.004499912261962891
ell 200, elapsed: 0.0004611015319824219
ell 199, elapsed: 0.0005159378051757812
ell 198, elapsed: 0.0005910396575927734
ell 197, elapsed: 0.0004398822784423828
ell 196, elapsed: 0.0005671977996826172
ell 195, elapsed: 0.000518798828125
ell 194, elapsed: 0.00048613548278808594
ell 193, elapsed: 0.0005648136138916016
ell 192, elapsed: 0.0006539821624755859
ell 191, elapsed: 0.0005779266357421875
ell 190, elapsed: 0.0005080699920654297
ell 189, elapsed: 0.0007071495056152344
ell 188, elapsed: 0.0005178451538085938
ell 187, elapsed: 0.0004909038543701172
ell 186, elapsed: 0.0006630420684814453
ell 185, elapsed: 0.0005099773406982422
ell 184, elapsed: 0.0005021095275878906
ell 183, elapsed: 0.0005028247833251953
ell 182, elapsed: 0.0004918575286865234
ell 181, elapsed: 0.0004799365997314453
ell 180, elapsed: 0.0005009174346923828
ell 179, elapsed: 0.0005090236663818359
ell 178, elapsed: 0.000514984130859375
ell 177, elapsed: 0.0005071163177490234
ell 176, elapsed: 0.0005249977111816406
ell 175, elapsed: 0.0007390975952148438
ell 174, elapsed: 0.0005249977111816406
ell 173, elapsed: 0.0005059242248535156
ell 172, elapsed: 0.0004978179931640625
ell 171, elapsed: 0.0004968643188476562
ell 170, elapsed: 0.0005080699920654297
ell 169, elapsed: 0.0005059242248535156
ell 168, elapsed: 0.0004968643188476562
ell 167, elapsed: 0.0006909370422363281
ell 166, elapsed: 0.0005300045013427734
ell 165, elapsed: 0.0005159378051757812
ell 164, elapsed: 0.0005080699920654297
ell 163, elapsed: 0.0006530284881591797
ell 162, elapsed: 0.0005171298980712891
ell 161, elapsed: 0.0006430149078369141
ell 160, elapsed: 0.0006821155548095703
ell 159, elapsed: 0.0005078315734863281
ell 158, elapsed: 0.0005180835723876953
ell 157, elapsed: 0.0004849433898925781
ell 156, elapsed: 0.0004711151123046875
ell 155, elapsed: 0.0004749298095703125
ell 154, elapsed: 0.0004780292510986328
ell 153, elapsed: 0.00046706199645996094
ell 152, elapsed: 0.0004811286926269531
ell 151, elapsed: 0.00047397613525390625
ell 150, elapsed: 0.00047707557678222656
ell 149, elapsed: 0.00047898292541503906
ell 148, elapsed: 0.0004699230194091797
ell 147, elapsed: 0.0004820823669433594
ell 146, elapsed: 0.00045490264892578125
ell 145, elapsed: 0.0005369186401367188
ell 144, elapsed: 0.0004780292510986328
ell 143, elapsed: 0.0005199909210205078
ell 142, elapsed: 0.0005271434783935547
ell 141, elapsed: 0.000514984130859375
ell 140, elapsed: 0.0005311965942382812
ell 139, elapsed: 0.0005049705505371094
ell 138, elapsed: 0.0005300045013427734
ell 137, elapsed: 0.0007500648498535156
ell 136, elapsed: 0.0004999637603759766
ell 135, elapsed: 0.0005271434783935547
ell 134, elapsed: 0.0005128383636474609
ell 133, elapsed: 0.0005331039428710938
ell 132, elapsed: 0.000518798828125
ell 131, elapsed: 0.0006780624389648438
ell 130, elapsed: 0.0005459785461425781
ell 129, elapsed: 0.0005669593811035156
ell 128, elapsed: 0.0005660057067871094
ell 127, elapsed: 0.0005218982696533203
ell 126, elapsed: 0.0005741119384765625
ell 125, elapsed: 0.0005371570587158203
ell 124, elapsed: 0.0005109310150146484
ell 123, elapsed: 0.0005130767822265625
ell 122, elapsed: 0.0005331039428710938
ell 121, elapsed: 0.0005271434783935547
ell 120, elapsed: 0.0007169246673583984
ell 119, elapsed: 0.0007340908050537109
ell 118, elapsed: 0.0005068778991699219
ell 117, elapsed: 0.0005211830139160156
ell 116, elapsed: 0.0005009174346923828
ell 115, elapsed: 0.000514984130859375
ell 114, elapsed: 0.0005159378051757812
ell 113, elapsed: 0.0005218982696533203
ell 112, elapsed: 0.00061798095703125
ell 111, elapsed: 0.0005171298980712891
ell 110, elapsed: 0.0005128383636474609
ell 109, elapsed: 0.0005018711090087891
ell 108, elapsed: 0.0005159378051757812
ell 107, elapsed: 0.0006930828094482422
ell 106, elapsed: 0.0005030632019042969
ell 105, elapsed: 0.0005171298980712891
ell 104, elapsed: 0.0005040168762207031
ell 103, elapsed: 0.0007450580596923828
ell 102, elapsed: 0.0007190704345703125
ell 101, elapsed: 0.0004851818084716797
ell 100, elapsed: 0.0005049705505371094
ell 99, elapsed: 0.0004999637603759766
ell 98, elapsed: 0.0007219314575195312
ell 97, elapsed: 0.0006089210510253906
ell 96, elapsed: 0.0004971027374267578
ell 95, elapsed: 0.0006301403045654297
ell 94, elapsed: 0.0005009174346923828
ell 93, elapsed: 0.0004851818084716797
ell 92, elapsed: 0.0005099773406982422
ell 91, elapsed: 0.0005209445953369141
ell 90, elapsed: 0.0005040168762207031
ell 89, elapsed: 0.0044438838958740234
ell 88, elapsed: 0.0006430149078369141
ell 87, elapsed: 0.0005660057067871094
ell 86, elapsed: 0.0005269050598144531
ell 85, elapsed: 0.0005240440368652344
ell 84, elapsed: 0.0007238388061523438
ell 83, elapsed: 0.0006589889526367188
ell 82, elapsed: 0.0006399154663085938
ell 81, elapsed: 0.0005340576171875
ell 80, elapsed: 0.0005049705505371094
ell 79, elapsed: 0.0005168914794921875
ell 78, elapsed: 0.0005159378051757812
ell 77, elapsed: 0.0005221366882324219
ell 76, elapsed: 0.0004990100860595703
ell 75, elapsed: 0.0005090236663818359
ell 74, elapsed: 0.0005321502685546875
ell 73, elapsed: 0.0005209445953369141
ell 72, elapsed: 0.0006709098815917969
ell 71, elapsed: 0.0005550384521484375
ell 70, elapsed: 0.00494694709777832
ell 69, elapsed: 0.0006058216094970703
ell 68, elapsed: 0.0005619525909423828
ell 67, elapsed: 0.0005238056182861328
ell 66, elapsed: 0.0005259513854980469
ell 65, elapsed: 0.0005228519439697266
ell 64, elapsed: 0.0005428791046142578
ell 63, elapsed: 0.0005128383636474609
ell 62, elapsed: 0.0005269050598144531
ell 61, elapsed: 0.0005331039428710938
ell 60, elapsed: 0.0005211830139160156
ell 59, elapsed: 0.0005509853363037109
ell 58, elapsed: 0.0005199909210205078
ell 57, elapsed: 0.0005168914794921875
ell 56, elapsed: 0.0005238056182861328
ell 55, elapsed: 0.0005080699920654297
ell 54, elapsed: 0.000537872314453125
ell 53, elapsed: 0.0005049705505371094
ell 52, elapsed: 0.0005650520324707031
ell 51, elapsed: 0.0005681514739990234
ell 50, elapsed: 0.0005729198455810547
ell 49, elapsed: 0.0005209445953369141
ell 48, elapsed: 0.0005540847778320312
ell 47, elapsed: 0.0005249977111816406
ell 46, elapsed: 0.0005528926849365234
ell 45, elapsed: 0.0005130767822265625
ell 44, elapsed: 0.0005540847778320312
ell 43, elapsed: 0.0005359649658203125
ell 42, elapsed: 0.0005979537963867188
ell 41, elapsed: 0.0005638599395751953
ell 40, elapsed: 0.0006971359252929688
ell 39, elapsed: 0.0005190372467041016
ell 38, elapsed: 0.0005171298980712891
ell 37, elapsed: 0.0005259513854980469
ell 36, elapsed: 0.0005159378051757812
ell 35, elapsed: 0.0005228519439697266
ell 34, elapsed: 0.0005331039428710938
ell 33, elapsed: 0.0006978511810302734
ell 32, elapsed: 0.0006799697875976562
ell 31, elapsed: 0.0007169246673583984
ell 30, elapsed: 0.0006399154663085938
ell 29, elapsed: 0.00078582763671875
ell 28, elapsed: 0.0007748603820800781
ell 27, elapsed: 0.0007770061492919922
ell 26, elapsed: 0.0008020401000976562
ell 25, elapsed: 0.0005288124084472656
ell 24, elapsed: 0.0005121231079101562
ell 23, elapsed: 0.000576019287109375
ell 22, elapsed: 0.0007779598236083984
ell 21, elapsed: 0.0005860328674316406
ell 20, elapsed: 0.0005099773406982422
ell 19, elapsed: 0.0006740093231201172
ell 18, elapsed: 0.0005400180816650391
ell 17, elapsed: 0.0005469322204589844
ell 16, elapsed: 0.0005071163177490234
ell 15, elapsed: 0.0005068778991699219
ell 14, elapsed: 0.0005319118499755859
ell 13, elapsed: 0.0005130767822265625
ell 12, elapsed: 0.00067901611328125
ell 11, elapsed: 0.0005190372467041016
ell 10, elapsed: 0.0005071163177490234
ell 9, elapsed: 0.0005300045013427734
ell 8, elapsed: 0.0005278587341308594
ell 7, elapsed: 0.0005509853363037109
ell 6, elapsed: 0.0007131099700927734
ell 5, elapsed: 0.0005350112915039062
ell 4, elapsed: 0.0005471706390380859
ell 3, elapsed: 0.0005280971527099609
ell 2, elapsed: 0.0005218982696533203
ell 1, elapsed: 0.0005109310150146484
ell 0, elapsed: 0.0006680488586425781
  0.805022 seconds (103.62 k allocations: 3.970 MiB)
elapsed: 0.0009810924530029297
step:          0.071564 sec (0 allocations: 0 byte, 0.0% gc time)
swapping:      0.0008 sec (0 allocations: 0 byte, 0.0% gc time)
calc_Mellell!: 0.014736 sec (0 allocations: 0 byte, 0.0% gc time)
  t0 :  0.00282 sec (0 allocations: 0 byte, 0.0% gc time)
  tm2 : 0.099554 sec (0 allocations: 0 byte, 0.0% gc time)
  tm2s: 0.001544 sec (0 allocations: 0 byte, 0.0% gc time)
  tm4 : 0.261332 sec (0 allocations: 0 byte, 0.0% gc time)
  tp2 : 0.0 sec (0 allocations: 0 byte, 0.0% gc time)
  tp2s: 0.0 sec (0 allocations: 0 byte, 0.0% gc time)
  tp4 : 0.0 sec (0 allocations: 0 byte, 0.0% gc time)
calc_wtdll!:   0.397291 sec (9.9 k allocations: 1.047 MB, 0.0% gc time)
calc_wljj!:    0.037889 sec (689 allocations: 10.766 KB, 0.0% gc time)
mult_prefac!:  0.0 sec (0 allocations: 0 byte, 0.0% gc time)
convert:       0.0 sec (0 allocations: 0 byte, 0.0% gc time)
write:         0.046608 sec (0 allocations: 0 byte, 0.0% gc time)
test_rand_2f1: 0.0 sec (0 allocations: 0 byte, 0.0% gc time)
Closing outfile out/Ml21-cache.bin...   0.000025 seconds
  0.000668 seconds (36 allocations: 27.953 KiB)
make_phi():   0.002804 seconds (8.18 k allocations: 237.844 KiB)
  0.265310 seconds (141.90 k allocations: 3.483 MiB)
tskip:       0.001756 sec (0 allocations: 0 byte, 0.0% gc time)
tread:       0.036582 sec (17 allocations: 10.641 KB, 0.0% gc time)
tmultphi:    0.017569 sec (0 allocations: 0 byte, 0.0% gc time)
tbrfft:      0.079017 sec (0 allocations: 0 byte, 0.0% gc time)
tmultprefac: 0.040548 sec (0 allocations: 0 byte, 0.0% gc time)
toutfunc:    0.08316 sec (127.507 k allocations: 2.312 MB, 0.0% gc time)
Testing R=1.0 ... passed
Calculating fmax: 
  dlrec    = 4
  dlrecRg1 = -4
  q=1.1, R=0.9:	  0.488928 seconds (105.76 k allocations: 15.287 MiB)

  0.491826 seconds (105.99 k allocations: 15.324 MiB)
ℓ = 1202
Δℓ = 4
ΔℓRg1 = -4
N = 1600
q = 1.1
kmin = 1.0e-5
kmax = 100000.00000000004
χ0 = 0.023029999999999995
RR = RR.tsv
ℓmax = ℓmax.bin
f21 = f21.bin
kmin = 1.0e-5
kmax = 100000.0
dlrec    = 4
dlrecRg1 = -4
Output size: 5741568 bytes = 0.005347251892089844 GiB
Output size: 51264 bytes = 4.774332046508789e-5 GiB
Reading 'out/F21EllCache'...   0.002595 seconds (197 allocations: 84.203 KiB)
ellmax: 1202
lmaxcache: 1202
fell[:,1,1] = ComplexF64[1.3482014726274674e-57 - 3.302141236118086e-73im, 1.357860004724329e-57 - 3.3257978169518355e-73im]
ell 1202, elapsed: 0.000225067138671875
ell 1201, elapsed: 0.0005669593811035156
ell 1200, elapsed: 0.0004649162292480469
ell 1199, elapsed: 0.00045800209045410156
ell 1198, elapsed: 0.0005071163177490234
ell 1002, elapsed: 0.011445045471191406
ell 1001, elapsed: 0.0004940032958984375
ell 1000, elapsed: 0.0004601478576660156
ell 999, elapsed: 0.00043892860412597656
ell 998, elapsed: 0.00045299530029296875
ell 902, elapsed: 0.005828857421875
ell 901, elapsed: 0.0004429817199707031
ell 900, elapsed: 0.00045490264892578125
ell 899, elapsed: 0.0004489421844482422
ell 898, elapsed: 0.0004520416259765625
ell 802, elapsed: 0.0059049129486083984
ell 801, elapsed: 0.0004439353942871094
ell 800, elapsed: 0.0004420280456542969
ell 799, elapsed: 0.00043201446533203125
ell 798, elapsed: 0.00045299530029296875
ell 702, elapsed: 0.0057218074798583984
ell 701, elapsed: 0.0004429817199707031
ell 700, elapsed: 0.0004360675811767578
ell 699, elapsed: 0.000431060791015625
ell 698, elapsed: 0.0006089210510253906
ell 602, elapsed: 0.005800008773803711
ell 601, elapsed: 0.00045299530029296875
ell 600, elapsed: 0.00043892860412597656
ell 599, elapsed: 0.00043201446533203125
ell 598, elapsed: 0.00043201446533203125
ell 502, elapsed: 0.005716085433959961
ell 501, elapsed: 0.00045013427734375
ell 500, elapsed: 0.0004398822784423828
ell 499, elapsed: 0.0004429817199707031
ell 498, elapsed: 0.0005340576171875
ell 402, elapsed: 0.00675201416015625
ell 401, elapsed: 0.0004677772521972656
ell 400, elapsed: 0.0004410743713378906
ell 399, elapsed: 0.0004279613494873047
ell 398, elapsed: 0.00045299530029296875
ell 302, elapsed: 0.005852937698364258
ell 301, elapsed: 0.0004589557647705078
ell 300, elapsed: 0.000453948974609375
ell 299, elapsed: 0.0006527900695800781
ell 298, elapsed: 0.00045418739318847656
ell 202, elapsed: 0.005949974060058594
ell 201, elapsed: 0.0004901885986328125
ell 200, elapsed: 0.0006270408630371094
ell 199, elapsed: 0.00045013427734375
ell 198, elapsed: 0.0006430149078369141
ell 152, elapsed: 0.0032608509063720703
ell 151, elapsed: 0.00043702125549316406
ell 150, elapsed: 0.0004398822784423828
ell 149, elapsed: 0.0004482269287109375
ell 148, elapsed: 0.00041985511779785156
ell 127, elapsed: 0.0016100406646728516
ell 126, elapsed: 0.0004181861877441406
ell 125, elapsed: 0.0004341602325439453
ell 124, elapsed: 0.0004291534423828125
ell 123, elapsed: 0.0004298686981201172
ell 114, elapsed: 0.0009529590606689453
ell 113, elapsed: 0.0005390644073486328
ell 112, elapsed: 0.0004470348358154297
ell 111, elapsed: 0.000431060791015625
ell 110, elapsed: 0.00043392181396484375
ell 102, elapsed: 0.000904083251953125
ell 101, elapsed: 0.0004329681396484375
ell 100, elapsed: 0.00043392181396484375
ell 99, elapsed: 0.00044798851013183594
ell 98, elapsed: 0.00043392181396484375
ell 97, elapsed: 0.0005130767822265625
ell 96, elapsed: 0.0005080699920654297
ell 95, elapsed: 0.0005071163177490234
ell 94, elapsed: 0.0005040168762207031
ell 93, elapsed: 0.0006260871887207031
ell 92, elapsed: 0.0005540847778320312
ell 91, elapsed: 0.0006039142608642578
ell 90, elapsed: 0.0005600452423095703
ell 89, elapsed: 0.0004999637603759766
ell 88, elapsed: 0.0005249977111816406
ell 87, elapsed: 0.0005199909210205078
ell 86, elapsed: 0.0005180835723876953
ell 85, elapsed: 0.0005109310150146484
ell 84, elapsed: 0.0004889965057373047
ell 83, elapsed: 0.0005180835723876953
ell 82, elapsed: 0.0005228519439697266
ell 81, elapsed: 0.0005130767822265625
ell 80, elapsed: 0.0005049705505371094
ell 79, elapsed: 0.0004851818084716797
ell 78, elapsed: 0.00048804283142089844
ell 77, elapsed: 0.0004820823669433594
ell 76, elapsed: 0.0004878044128417969
ell 75, elapsed: 0.0005261898040771484
ell 74, elapsed: 0.0005121231079101562
ell 73, elapsed: 0.0004680156707763672
ell 72, elapsed: 0.0004899501800537109
ell 71, elapsed: 0.0005068778991699219
ell 70, elapsed: 0.0004949569702148438
ell 69, elapsed: 0.0004978179931640625
ell 68, elapsed: 0.0006029605865478516
ell 67, elapsed: 0.0005321502685546875
ell 66, elapsed: 0.0005049705505371094
ell 65, elapsed: 0.0004830360412597656
ell 64, elapsed: 0.0004899501800537109
ell 63, elapsed: 0.0004909038543701172
ell 62, elapsed: 0.0004889965057373047
ell 61, elapsed: 0.0004889965057373047
ell 60, elapsed: 0.0005049705505371094
ell 59, elapsed: 0.00048804283142089844
ell 58, elapsed: 0.0005090236663818359
ell 57, elapsed: 0.0004940032958984375
ell 56, elapsed: 0.00048089027404785156
ell 55, elapsed: 0.0004930496215820312
ell 54, elapsed: 0.0004899501800537109
ell 53, elapsed: 0.0004940032958984375
ell 52, elapsed: 0.000492095947265625
ell 51, elapsed: 0.0005030632019042969
ell 50, elapsed: 0.0004901885986328125
ell 49, elapsed: 0.0005218982696533203
ell 48, elapsed: 0.0005109310150146484
ell 47, elapsed: 0.0005769729614257812
ell 46, elapsed: 0.0004801750183105469
ell 45, elapsed: 0.0004918575286865234
ell 44, elapsed: 0.0004630088806152344
ell 43, elapsed: 0.0005090236663818359
ell 42, elapsed: 0.0005028247833251953
ell 41, elapsed: 0.0004980564117431641
ell 40, elapsed: 0.0004930496215820312
ell 39, elapsed: 0.0004971027374267578
ell 38, elapsed: 0.0004999637603759766
ell 37, elapsed: 0.0005040168762207031
ell 36, elapsed: 0.0004911422729492188
ell 35, elapsed: 0.0004968643188476562
ell 34, elapsed: 0.0004940032958984375
ell 33, elapsed: 0.0004990100860595703
ell 32, elapsed: 0.0004899501800537109
ell 31, elapsed: 0.0005040168762207031
ell 30, elapsed: 0.0004990100860595703
ell 29, elapsed: 0.0004980564117431641
ell 28, elapsed: 0.00048613548278808594
ell 27, elapsed: 0.0004930496215820312
ell 26, elapsed: 0.0004918575286865234
ell 25, elapsed: 0.0004820823669433594
ell 24, elapsed: 0.0005061626434326172
ell 23, elapsed: 0.0004780292510986328
ell 22, elapsed: 0.000476837158203125
ell 21, elapsed: 0.00048804283142089844
ell 20, elapsed: 0.0004949569702148438
ell 19, elapsed: 0.0004949569702148438
ell 18, elapsed: 0.0005040168762207031
ell 17, elapsed: 0.0005028247833251953
ell 16, elapsed: 0.0005040168762207031
ell 15, elapsed: 0.0005171298980712891
ell 14, elapsed: 0.0005018711090087891
ell 13, elapsed: 0.0005090236663818359
ell 12, elapsed: 0.0004889965057373047
ell 11, elapsed: 0.0004889965057373047
ell 10, elapsed: 0.0004909038543701172
ell 9, elapsed: 0.0005071163177490234
ell 8, elapsed: 0.000492095947265625
ell 7, elapsed: 0.0004909038543701172
ell 6, elapsed: 0.0004911422729492188
ell 5, elapsed: 0.000492095947265625
ell 4, elapsed: 0.0004928112030029297
ell 3, elapsed: 0.0005049705505371094
ell 2, elapsed: 0.000492095947265625
ell 1, elapsed: 0.0005099773406982422
ell 0, elapsed: 0.0005090236663818359
  0.178089 seconds (19.55 k allocations: 845.250 KiB)
elapsed: 0.0010287761688232422
step:          0.065467 sec (0 allocations: 0 byte, 0.0% gc time)
swapping:      0.000576 sec (0 allocations: 0 byte, 0.0% gc time)
calc_Mellell!: 0.001387 sec (0 allocations: 0 byte, 0.0% gc time)
  t0 :  0.000428 sec (0 allocations: 0 byte, 0.0% gc time)
  tm2 : 0.013276 sec (0 allocations: 0 byte, 0.0% gc time)
  tm2s: 0.000292 sec (0 allocations: 0 byte, 0.0% gc time)
  tm4 : 0.035104 sec (0 allocations: 0 byte, 0.0% gc time)
  tp2 : 0.0 sec (0 allocations: 0 byte, 0.0% gc time)
  tp2s: 0.0 sec (0 allocations: 0 byte, 0.0% gc time)
  tp4 : 0.0 sec (0 allocations: 0 byte, 0.0% gc time)
calc_wtdll!:   0.049842 sec (1.344 k allocations: 147.0 KB, 0.0% gc time)
calc_wljj!:    0.0033 sec (6 allocations: 96 byte, 0.0% gc time)
mult_prefac!:  0.0 sec (0 allocations: 0 byte, 0.0% gc time)
convert:       0.0 sec (0 allocations: 0 byte, 0.0% gc time)
write:         0.004182 sec (0 allocations: 0 byte, 0.0% gc time)
test_rand_2f1: 0.0 sec (0 allocations: 0 byte, 0.0% gc time)
Closing outfile out/Ml21-cache.bin...   0.000007 seconds
  0.000600 seconds (36 allocations: 27.953 KiB)
make_phi():   0.002955 seconds (8.18 k allocations: 237.844 KiB)
  0.023995 seconds (11.65 k allocations: 308.688 KiB)
tskip:       2.9e-5 sec (0 allocations: 0 byte, 0.0% gc time)
tread:       0.003121 sec (17 allocations: 2.125 KB, 0.0% gc time)
tmultphi:    0.001807 sec (0 allocations: 0 byte, 0.0% gc time)
tbrfft:      0.005986 sec (0 allocations: 0 byte, 0.0% gc time)
tmultprefac: 0.003976 sec (0 allocations: 0 byte, 0.0% gc time)
toutfunc:    0.008512 sec (10.304 k allocations: 196.0 KB, 0.0% gc time)
Testing R=0.9 ... passed
Calculating fmax: 
  dlrec    = 4
  dlrecRg1 = -4
  q=1.1, R=0.8:	  0.409539 seconds (103.25 k allocations: 14.856 MiB)

  0.411048 seconds (103.48 k allocations: 14.893 MiB)
ℓ = 1202
Δℓ = 4
ΔℓRg1 = -4
N = 1600
q = 1.1
kmin = 1.0e-5
kmax = 100000.00000000004
χ0 = 0.023029999999999995
RR = RR.tsv
ℓmax = ℓmax.bin
f21 = f21.bin
kmin = 1.0e-5
kmax = 100000.0
dlrec    = 4
dlrecRg1 = -4
Output size: 5741568 bytes = 0.005347251892089844 GiB
Output size: 51264 bytes = 4.774332046508789e-5 GiB
Reading 'out/F21EllCache'...   0.001430 seconds (197 allocations: 84.203 KiB)
ellmax: 1202
lmaxcache: 1202
fell[:,1,1] = ComplexF64[7.519068145690986e-120 - 1.8416405474382574e-135im, 7.541664537386155e-120 - 1.847175067190611e-135im]
ell 1202, elapsed: 9.107589721679688e-5
ell 1201, elapsed: 0.000576019287109375
ell 1200, elapsed: 0.0004680156707763672
ell 1199, elapsed: 0.0004630088806152344
ell 1198, elapsed: 0.0006401538848876953
ell 1002, elapsed: 0.011240005493164062
ell 1001, elapsed: 0.00047588348388671875
ell 1000, elapsed: 0.000453948974609375
ell 999, elapsed: 0.000453948974609375
ell 998, elapsed: 0.00045609474182128906
ell 902, elapsed: 0.00527501106262207
ell 901, elapsed: 0.0004799365997314453
ell 900, elapsed: 0.0004489421844482422
ell 899, elapsed: 0.00045299530029296875
ell 898, elapsed: 0.00045299530029296875
ell 802, elapsed: 0.005235910415649414
ell 801, elapsed: 0.0004818439483642578
ell 800, elapsed: 0.00045680999755859375
ell 799, elapsed: 0.0004658699035644531
ell 798, elapsed: 0.00045299530029296875
ell 702, elapsed: 0.005602836608886719
ell 701, elapsed: 0.0004730224609375
ell 700, elapsed: 0.0004630088806152344
ell 699, elapsed: 0.00045490264892578125
ell 698, elapsed: 0.0004391670227050781
ell 602, elapsed: 0.005270957946777344
ell 601, elapsed: 0.00047016143798828125
ell 600, elapsed: 0.0004630088806152344
ell 599, elapsed: 0.0004699230194091797
ell 598, elapsed: 0.0004520416259765625
ell 502, elapsed: 0.005220174789428711
ell 501, elapsed: 0.0004699230194091797
ell 500, elapsed: 0.0004611015319824219
ell 499, elapsed: 0.00041985511779785156
ell 498, elapsed: 0.0004220008850097656
ell 402, elapsed: 0.005156993865966797
ell 401, elapsed: 0.0004680156707763672
ell 400, elapsed: 0.00045013427734375
ell 399, elapsed: 0.0004839897155761719
ell 398, elapsed: 0.0004699230194091797
ell 302, elapsed: 0.005328178405761719
ell 301, elapsed: 0.0004951953887939453
ell 300, elapsed: 0.0004870891571044922
ell 299, elapsed: 0.0004630088806152344
ell 298, elapsed: 0.000614166259765625
ell 202, elapsed: 0.0052340030670166016
ell 201, elapsed: 0.0004448890686035156
ell 200, elapsed: 0.0004410743713378906
ell 199, elapsed: 0.00045609474182128906
ell 198, elapsed: 0.0004489421844482422
ell 152, elapsed: 0.0027799606323242188
ell 151, elapsed: 0.0004680156707763672
ell 150, elapsed: 0.0004639625549316406
ell 149, elapsed: 0.0058650970458984375
ell 148, elapsed: 0.0004870891571044922
ell 127, elapsed: 0.0016720294952392578
ell 126, elapsed: 0.00047397613525390625
ell 125, elapsed: 0.0004639625549316406
ell 124, elapsed: 0.0004520416259765625
ell 123, elapsed: 0.0004620552062988281
ell 114, elapsed: 0.000993967056274414
ell 113, elapsed: 0.0004839897155761719
ell 112, elapsed: 0.0004780292510986328
ell 111, elapsed: 0.0004661083221435547
ell 110, elapsed: 0.0004730224609375
ell 102, elapsed: 0.0009520053863525391
ell 101, elapsed: 0.0004658699035644531
ell 100, elapsed: 0.00044798851013183594
ell 99, elapsed: 0.00045299530029296875
ell 98, elapsed: 0.00045609474182128906
ell 97, elapsed: 0.0005459785461425781
ell 96, elapsed: 0.0005350112915039062
ell 95, elapsed: 0.0005209445953369141
ell 94, elapsed: 0.0005431175231933594
ell 93, elapsed: 0.0005271434783935547
ell 92, elapsed: 0.0004951953887939453
ell 91, elapsed: 0.0005271434783935547
ell 90, elapsed: 0.0005540847778320312
ell 89, elapsed: 0.0005028247833251953
ell 88, elapsed: 0.0005259513854980469
ell 87, elapsed: 0.0005269050598144531
ell 86, elapsed: 0.0005249977111816406
ell 85, elapsed: 0.0005319118499755859
ell 84, elapsed: 0.0005309581756591797
ell 83, elapsed: 0.0005199909210205078
ell 82, elapsed: 0.0005578994750976562
ell 81, elapsed: 0.0005519390106201172
ell 80, elapsed: 0.0005581378936767578
ell 79, elapsed: 0.0005331039428710938
ell 78, elapsed: 0.0005290508270263672
ell 77, elapsed: 0.0005400180816650391
ell 76, elapsed: 0.0005381107330322266
ell 75, elapsed: 0.0005588531494140625
ell 74, elapsed: 0.0005481243133544922
ell 73, elapsed: 0.0007359981536865234
ell 72, elapsed: 0.0005350112915039062
ell 71, elapsed: 0.0005419254302978516
ell 70, elapsed: 0.0005431175231933594
ell 69, elapsed: 0.0005362033843994141
ell 68, elapsed: 0.0007910728454589844
ell 67, elapsed: 0.0005300045013427734
ell 66, elapsed: 0.0005550384521484375
ell 65, elapsed: 0.0007030963897705078
ell 64, elapsed: 0.0008139610290527344
ell 63, elapsed: 0.0007681846618652344
ell 62, elapsed: 0.0005571842193603516
ell 61, elapsed: 0.0005419254302978516
ell 60, elapsed: 0.0005338191986083984
ell 59, elapsed: 0.0005390644073486328
ell 58, elapsed: 0.0005390644073486328
ell 57, elapsed: 0.0005488395690917969
ell 56, elapsed: 0.0005409717559814453
ell 55, elapsed: 0.0005381107330322266
ell 54, elapsed: 0.0005190372467041016
[...]
ell 789, elapsed: 0.0012500286102294922
ell 788, elapsed: 0.0011401176452636719
ell 782, elapsed: 0.0019428730010986328
ell 781, elapsed: 0.0010879039764404297
ell 780, elapsed: 0.0008859634399414062
ell 779, elapsed: 0.0011909008026123047
ell 778, elapsed: 0.001238107681274414
ell 772, elapsed: 0.0021390914916992188
ell 771, elapsed: 0.0007908344268798828
ell 770, elapsed: 0.0012209415435791016
ell 769, elapsed: 0.0012319087982177734
ell 768, elapsed: 0.0011370182037353516
ell 762, elapsed: 0.0017118453979492188
ell 761, elapsed: 0.001129150390625
ell 760, elapsed: 0.0008699893951416016
ell 759, elapsed: 0.0007498264312744141
ell 758, elapsed: 0.0007529258728027344
ell 752, elapsed: 0.0012958049774169922
ell 751, elapsed: 0.000743865966796875
ell 750, elapsed: 0.0007560253143310547
ell 749, elapsed: 0.0011210441589355469
ell 748, elapsed: 0.0012459754943847656
ell 742, elapsed: 0.0018589496612548828
ell 741, elapsed: 0.0011239051818847656
ell 740, elapsed: 0.0009000301361083984
ell 739, elapsed: 0.001255035400390625
ell 738, elapsed: 0.0007679462432861328
ell 732, elapsed: 0.0013470649719238281
ell 731, elapsed: 0.0007648468017578125
ell 730, elapsed: 0.0012021064758300781
ell 729, elapsed: 0.0012271404266357422
ell 728, elapsed: 0.0011420249938964844
ell 722, elapsed: 0.0021190643310546875
ell 721, elapsed: 0.0010509490966796875
ell 720, elapsed: 0.0012791156768798828
ell 719, elapsed: 0.0008680820465087891
ell 718, elapsed: 0.0009238719940185547
ell 712, elapsed: 0.001931905746459961
ell 711, elapsed: 0.0011861324310302734
ell 710, elapsed: 0.0008771419525146484
ell 709, elapsed: 0.0012378692626953125
ell 708, elapsed: 0.0012178421020507812
ell 702, elapsed: 0.0018260478973388672
ell 701, elapsed: 0.0011548995971679688
ell 700, elapsed: 0.0007698535919189453
ell 699, elapsed: 0.0007619857788085938
ell 698, elapsed: 0.0007660388946533203
ell 692, elapsed: 0.0013120174407958984
ell 691, elapsed: 0.001046895980834961
ell 690, elapsed: 0.0011141300201416016
ell 689, elapsed: 0.0012159347534179688
ell 688, elapsed: 0.0012898445129394531
ell 682, elapsed: 0.0021889209747314453
ell 681, elapsed: 0.0010650157928466797
ell 680, elapsed: 0.001149892807006836
ell 679, elapsed: 0.0012249946594238281
ell 678, elapsed: 0.0011501312255859375
ell 672, elapsed: 0.0016880035400390625
ell 671, elapsed: 0.0012459754943847656
ell 670, elapsed: 0.0011949539184570312
ell 669, elapsed: 0.0007579326629638672
ell 668, elapsed: 0.0007550716400146484
ell 662, elapsed: 0.0013339519500732422
ell 661, elapsed: 0.0012018680572509766
ell 660, elapsed: 0.0011341571807861328
ell 659, elapsed: 0.0012161731719970703
ell 658, elapsed: 0.0011680126190185547
ell 652, elapsed: 0.002132892608642578
ell 651, elapsed: 0.0011069774627685547
ell 650, elapsed: 0.001271963119506836
ell 649, elapsed: 0.0011930465698242188
ell 648, elapsed: 0.0012829303741455078
ell 642, elapsed: 0.001867055892944336
ell 641, elapsed: 0.0008971691131591797
ell 640, elapsed: 0.001149892807006836
ell 639, elapsed: 0.0008897781372070312
ell 638, elapsed: 0.0012359619140625
ell 632, elapsed: 0.0019369125366210938
ell 631, elapsed: 0.0011310577392578125
ell 630, elapsed: 0.0012798309326171875
ell 629, elapsed: 0.0011911392211914062
ell 628, elapsed: 0.0011951923370361328
ell 622, elapsed: 0.0017139911651611328
ell 621, elapsed: 0.0011258125305175781
ell 620, elapsed: 0.0011420249938964844
ell 619, elapsed: 0.0016968250274658203
ell 618, elapsed: 0.0009009838104248047
ell 612, elapsed: 0.0013210773468017578
ell 611, elapsed: 0.0007510185241699219
ell 610, elapsed: 0.0007460117340087891
ell 609, elapsed: 0.0007638931274414062
ell 608, elapsed: 0.0007529258728027344
ell 602, elapsed: 0.001322031021118164
ell 601, elapsed: 0.0011200904846191406
ell 600, elapsed: 0.0012459754943847656
ell 599, elapsed: 0.0011649131774902344
ell 598, elapsed: 0.0012769699096679688
ell 592, elapsed: 0.0019299983978271484
ell 591, elapsed: 0.0008919239044189453
ell 590, elapsed: 0.0010781288146972656
ell 589, elapsed: 0.0011429786682128906
ell 588, elapsed: 0.0011870861053466797
ell 582, elapsed: 0.0018811225891113281
ell 581, elapsed: 0.0008718967437744141
ell 580, elapsed: 0.001252889633178711
ell 579, elapsed: 0.0012547969818115234
ell 578, elapsed: 0.0011620521545410156
ell 572, elapsed: 0.0016868114471435547
ell 571, elapsed: 0.0011379718780517578
ell 570, elapsed: 0.001252889633178711
ell 569, elapsed: 0.0008940696716308594
ell 568, elapsed: 0.0011360645294189453
ell 562, elapsed: 0.0016357898712158203
ell 561, elapsed: 0.0011608600616455078
ell 560, elapsed: 0.0011680126190185547
ell 559, elapsed: 0.0007789134979248047
ell 558, elapsed: 0.0007810592651367188
ell 552, elapsed: 0.0013070106506347656
ell 551, elapsed: 0.0007431507110595703
ell 550, elapsed: 0.0007810592651367188
ell 549, elapsed: 0.0011420249938964844
ell 548, elapsed: 0.0012691020965576172
ell 542, elapsed: 0.0022690296173095703
ell 541, elapsed: 0.001024007797241211
ell 540, elapsed: 0.0012040138244628906
ell 539, elapsed: 0.0007619857788085938
ell 538, elapsed: 0.0008900165557861328
ell 532, elapsed: 0.0013260841369628906
ell 531, elapsed: 0.001219034194946289
ell 530, elapsed: 0.0011510848999023438
ell 529, elapsed: 0.0012259483337402344
ell 528, elapsed: 0.0007691383361816406
ell 522, elapsed: 0.001316070556640625
ell 521, elapsed: 0.0007710456848144531
ell 520, elapsed: 0.0012450218200683594
ell 519, elapsed: 0.0011508464813232422
ell 518, elapsed: 0.0010840892791748047
ell 512, elapsed: 0.0019850730895996094
ell 511, elapsed: 0.0008859634399414062
ell 510, elapsed: 0.0007507801055908203
ell 509, elapsed: 0.0007510185241699219
ell 508, elapsed: 0.0007469654083251953
ell 502, elapsed: 0.001322031021118164
ell 501, elapsed: 0.0012819766998291016
ell 500, elapsed: 0.0008940696716308594
ell 499, elapsed: 0.0012059211730957031
ell 498, elapsed: 0.0012710094451904297
ell 492, elapsed: 0.00191497802734375
ell 491, elapsed: 0.001271963119506836
ell 490, elapsed: 0.000885009765625
ell 489, elapsed: 0.0012221336364746094
ell 488, elapsed: 0.0011789798736572266
ell 482, elapsed: 0.0019497871398925781
ell 481, elapsed: 0.0012021064758300781
ell 480, elapsed: 0.001188039779663086
ell 479, elapsed: 0.0008718967437744141
ell 478, elapsed: 0.0012309551239013672
ell 472, elapsed: 0.0019481182098388672
ell 471, elapsed: 0.0012521743774414062
ell 470, elapsed: 0.001135110855102539
ell 469, elapsed: 0.0012900829315185547
ell 468, elapsed: 0.0012710094451904297
ell 462, elapsed: 0.00164794921875
ell 461, elapsed: 0.0010499954223632812
ell 460, elapsed: 0.0007469654083251953
ell 459, elapsed: 0.0007698535919189453
ell 458, elapsed: 0.0007631778717041016
ell 452, elapsed: 0.0013301372528076172
ell 451, elapsed: 0.0010781288146972656
ell 450, elapsed: 0.0012230873107910156
ell 449, elapsed: 0.0007190704345703125
ell 448, elapsed: 0.0007479190826416016
ell 442, elapsed: 0.0013310909271240234
ell 441, elapsed: 0.0012140274047851562
ell 440, elapsed: 0.0011589527130126953
ell 439, elapsed: 0.001157999038696289
ell 438, elapsed: 0.0011379718780517578
ell 432, elapsed: 0.0020940303802490234
ell 431, elapsed: 0.001051187515258789
ell 430, elapsed: 0.0012049674987792969
ell 429, elapsed: 0.0011320114135742188
ell 428, elapsed: 0.0012080669403076172
ell 422, elapsed: 0.0015649795532226562
ell 421, elapsed: 0.0008878707885742188
ell 420, elapsed: 0.0010571479797363281
ell 419, elapsed: 0.0011799335479736328
ell 418, elapsed: 0.0007581710815429688
ell 412, elapsed: 0.001291036605834961
ell 411, elapsed: 0.0007770061492919922
ell 410, elapsed: 0.0008540153503417969
ell 409, elapsed: 0.0007569789886474609
ell 408, elapsed: 0.0011157989501953125
ell 402, elapsed: 0.0013070106506347656
ell 401, elapsed: 0.0012509822845458984
ell 400, elapsed: 0.0011451244354248047
ell 399, elapsed: 0.0007679462432861328
ell 398, elapsed: 0.0007550716400146484
ell 392, elapsed: 0.00131988525390625
ell 391, elapsed: 0.0007851123809814453
ell 390, elapsed: 0.0007710456848144531
ell 389, elapsed: 0.0012099742889404297
ell 388, elapsed: 0.0007641315460205078
ell 382, elapsed: 0.001638174057006836
ell 381, elapsed: 0.001149892807006836
ell 380, elapsed: 0.0011439323425292969
ell 379, elapsed: 0.0011489391326904297
ell 378, elapsed: 0.001249074935913086
ell 372, elapsed: 0.001806020736694336
ell 371, elapsed: 0.0011458396911621094
ell 370, elapsed: 0.0012700557708740234
ell 369, elapsed: 0.0011980533599853516
ell 368, elapsed: 0.0011320114135742188
ell 362, elapsed: 0.0016939640045166016
ell 361, elapsed: 0.0011661052703857422
ell 360, elapsed: 0.0011589527130126953
ell 359, elapsed: 0.0012640953063964844
ell 358, elapsed: 0.0012531280517578125
ell 352, elapsed: 0.0016200542449951172
ell 351, elapsed: 0.0007469654083251953
ell 350, elapsed: 0.0007500648498535156
ell 349, elapsed: 0.0007491111755371094
ell 348, elapsed: 0.0007658004760742188
ell 342, elapsed: 0.001508951187133789
ell 341, elapsed: 0.0011990070343017578
ell 340, elapsed: 0.0008869171142578125
ell 339, elapsed: 0.0011920928955078125
ell 338, elapsed: 0.0012431144714355469
ell 332, elapsed: 0.0016329288482666016
ell 331, elapsed: 0.0011479854583740234
ell 330, elapsed: 0.001302957534790039
ell 329, elapsed: 0.0007581710815429688
ell 328, elapsed: 0.0007419586181640625
ell 322, elapsed: 0.0012860298156738281
ell 321, elapsed: 0.0007960796356201172
ell 320, elapsed: 0.0007548332214355469
ell 319, elapsed: 0.0011401176452636719
ell 318, elapsed: 0.0011489391326904297
ell 312, elapsed: 0.001873016357421875
ell 311, elapsed: 0.001199960708618164
ell 310, elapsed: 0.0007910728454589844
ell 309, elapsed: 0.0011990070343017578
ell 308, elapsed: 0.0011758804321289062
ell 302, elapsed: 0.0016720294952392578
ell 301, elapsed: 0.0012259483337402344
ell 300, elapsed: 0.0011489391326904297
ell 299, elapsed: 0.0012538433074951172
ell 298, elapsed: 0.0011281967163085938
ell 292, elapsed: 0.0018558502197265625
ell 291, elapsed: 0.0011599063873291016
ell 290, elapsed: 0.001146078109741211
ell 289, elapsed: 0.0011310577392578125
ell 288, elapsed: 0.0007569789886474609
ell 282, elapsed: 0.0012979507446289062
ell 281, elapsed: 0.0007510185241699219
ell 280, elapsed: 0.000743865966796875
ell 279, elapsed: 0.0007510185241699219
ell 278, elapsed: 0.0007510185241699219
ell 272, elapsed: 0.0018711090087890625
ell 271, elapsed: 0.001283884048461914
ell 270, elapsed: 0.0007688999176025391
ell 269, elapsed: 0.0007610321044921875
ell 268, elapsed: 0.0007700920104980469
ell 262, elapsed: 0.001667022705078125
ell 261, elapsed: 0.0012180805206298828
ell 260, elapsed: 0.0012447834014892578
ell 259, elapsed: 0.0008938312530517578
ell 258, elapsed: 0.0011379718780517578
ell 252, elapsed: 0.0017290115356445312
ell 251, elapsed: 0.0012519359588623047
ell 250, elapsed: 0.0012679100036621094
ell 249, elapsed: 0.00121307373046875
ell 248, elapsed: 0.0011489391326904297
ell 242, elapsed: 0.0017271041870117188
ell 241, elapsed: 0.0012290477752685547
ell 240, elapsed: 0.001146078109741211
ell 239, elapsed: 0.0012340545654296875
ell 238, elapsed: 0.0012531280517578125
ell 232, elapsed: 0.0016589164733886719
ell 231, elapsed: 0.0011670589447021484
ell 230, elapsed: 0.0012650489807128906
ell 229, elapsed: 0.0007710456848144531
ell 228, elapsed: 0.0007829666137695312
ell 222, elapsed: 0.0013229846954345703
ell 221, elapsed: 0.0007560253143310547
ell 220, elapsed: 0.0012798309326171875
ell 219, elapsed: 0.0011110305786132812
ell 218, elapsed: 0.001110076904296875
ell 212, elapsed: 0.0018630027770996094
ell 211, elapsed: 0.0011150836944580078
ell 210, elapsed: 0.0009047985076904297
ell 209, elapsed: 0.0011479854583740234
ell 208, elapsed: 0.0011701583862304688
ell 202, elapsed: 0.00173187255859375
ell 201, elapsed: 0.0008780956268310547
ell 200, elapsed: 0.0010991096496582031
ell 199, elapsed: 0.0012960433959960938
ell 198, elapsed: 0.0012488365173339844
ell 192, elapsed: 0.0016109943389892578
ell 191, elapsed: 0.0009169578552246094
ell 190, elapsed: 0.0009329319000244141
ell 189, elapsed: 0.0009348392486572266
ell 188, elapsed: 0.0009381771087646484
ell 182, elapsed: 0.001837015151977539
ell 181, elapsed: 0.0008671283721923828
ell 180, elapsed: 0.0009000301361083984
ell 179, elapsed: 0.0009050369262695312
ell 178, elapsed: 0.0009050369262695312
ell 172, elapsed: 0.0016198158264160156
ell 171, elapsed: 0.001207113265991211
ell 170, elapsed: 0.000865936279296875
ell 169, elapsed: 0.0009160041809082031
ell 168, elapsed: 0.0011169910430908203
ell 162, elapsed: 0.0015859603881835938
ell 161, elapsed: 0.0011799335479736328
ell 160, elapsed: 0.0009198188781738281
ell 159, elapsed: 0.0009090900421142578
ell 158, elapsed: 0.0008871555328369141
ell 152, elapsed: 0.0016260147094726562
ell 151, elapsed: 0.0009019374847412109
ell 150, elapsed: 0.0012900829315185547
ell 149, elapsed: 0.0008471012115478516
ell 148, elapsed: 0.0008940696716308594
ell 142, elapsed: 0.0021500587463378906
ell 141, elapsed: 0.0009331703186035156
ell 140, elapsed: 0.000885009765625
ell 139, elapsed: 0.0008800029754638672
ell 138, elapsed: 0.0011951923370361328
ell 132, elapsed: 0.0016360282897949219
ell 131, elapsed: 0.00127410888671875
ell 130, elapsed: 0.000990152359008789
ell 129, elapsed: 0.0013020038604736328
ell 128, elapsed: 0.0009191036224365234
ell 122, elapsed: 0.001641988754272461
ell 121, elapsed: 0.0013010501861572266
ell 120, elapsed: 0.0009191036224365234
ell 119, elapsed: 0.0009608268737792969
ell 118, elapsed: 0.0012009143829345703
ell 112, elapsed: 0.0016350746154785156
ell 111, elapsed: 0.0011820793151855469
ell 110, elapsed: 0.0009708404541015625
ell 109, elapsed: 0.0012218952178955078
ell 108, elapsed: 0.0009632110595703125
ell 102, elapsed: 0.0016360282897949219
ell 101, elapsed: 0.004275083541870117
ell 100, elapsed: 0.0044498443603515625
ell 99, elapsed: 0.003744840621948242
ell 98, elapsed: 0.009693145751953125
ell 92, elapsed: 0.006228923797607422
ell 91, elapsed: 0.003957033157348633
ell 90, elapsed: 0.004024982452392578
ell 89, elapsed: 0.003735065460205078
ell 88, elapsed: 0.0035080909729003906
ell 82, elapsed: 0.00627899169921875
ell 81, elapsed: 0.003657102584838867
ell 80, elapsed: 0.0036399364471435547
ell 79, elapsed: 0.004256010055541992
ell 78, elapsed: 0.0038518905639648438
ell 72, elapsed: 0.0071790218353271484
ell 71, elapsed: 0.004251956939697266
ell 70, elapsed: 0.004116058349609375
ell 69, elapsed: 0.004026889801025391
ell 68, elapsed: 0.004446983337402344
ell 62, elapsed: 0.006635904312133789
ell 61, elapsed: 0.0034139156341552734
ell 60, elapsed: 0.003724813461303711
ell 59, elapsed: 0.0038318634033203125
ell 58, elapsed: 0.003943920135498047
ell 52, elapsed: 0.006700992584228516
ell 51, elapsed: 0.003487110137939453
ell 50, elapsed: 0.003443002700805664
ell 49, elapsed: 0.0034360885620117188
ell 48, elapsed: 0.0034279823303222656
ell 42, elapsed: 0.0061299800872802734
ell 41, elapsed: 0.003534078598022461
ell 40, elapsed: 0.0034558773040771484
ell 39, elapsed: 0.0034332275390625
ell 38, elapsed: 0.003682851791381836
ell 32, elapsed: 0.0061151981353759766
ell 31, elapsed: 0.003407001495361328
ell 30, elapsed: 0.003813028335571289
ell 29, elapsed: 0.0038080215454101562
ell 28, elapsed: 0.0034928321838378906
ell 22, elapsed: 0.006233930587768555
ell 21, elapsed: 0.0034079551696777344
ell 20, elapsed: 0.0034399032592773438
ell 19, elapsed: 0.003710031509399414
ell 18, elapsed: 0.0034508705139160156
ell 12, elapsed: 0.006586790084838867
ell 11, elapsed: 0.003915071487426758
ell 10, elapsed: 0.003898143768310547
ell 9, elapsed: 0.003654956817626953
ell 8, elapsed: 0.004004955291748047
  0.998491 seconds (97.76 k allocations: 12.622 MiB)
elapsed: 0.005366802215576172
step:          0.065145 sec (0 allocations: 0 byte, 0.0% gc time)
swapping:      0.00071 sec (0 allocations: 0 byte, 0.0% gc time)
calc_Mellell!: 0.033457 sec (0 allocations: 0 byte, 0.0% gc time)
  t0 :  0.010807 sec (0 allocations: 0 byte, 0.0% gc time)
  tm2 : 0.091671 sec (0 allocations: 0 byte, 0.0% gc time)
  tm2s: 0.008712 sec (0 allocations: 0 byte, 0.0% gc time)
  tm4 : 0.201538 sec (0 allocations: 0 byte, 0.0% gc time)
  tp2 : 0.0 sec (0 allocations: 0 byte, 0.0% gc time)
  tp2s: 0.0 sec (0 allocations: 0 byte, 0.0% gc time)
  tp4 : 0.0 sec (0 allocations: 0 byte, 0.0% gc time)
calc_wtdll!:   0.608351 sec (48.6 k allocations: 11.096 MB, 0.0% gc time)
calc_wljj!:    0.038081 sec (69 allocations: 1.078 KB, 0.0% gc time)
mult_prefac!:  0.0 sec (0 allocations: 0 byte, 0.0% gc time)
convert:       0.0 sec (0 allocations: 0 byte, 0.0% gc time)
write:         0.033928 sec (0 allocations: 0 byte, 0.0% gc time)
test_rand_2f1: 0.0 sec (0 allocations: 0 byte, 0.0% gc time)
Closing outfile out/MlCache/MlCache.bin...   0.000008 seconds
xi, l=0, nu=0:   0.373550 seconds (602.57 k allocations: 32.893 MiB, 7.03% gc time)
xi, l=0, nu=-2:  0.002310 seconds (114 allocations: 148.969 KiB)
Created 'out/xi.tsv'.
  q=1.1, R=0.6:	  0.826041 seconds (264.52 k allocations: 38.099 MiB, 2.49% gc time)
  q=1.1, R=0.7:	  0.898260 seconds (276.46 k allocations: 40.114 MiB)
  q=1.1, R=0.8:	  1.001528 seconds (271.68 k allocations: 39.302 MiB, 1.25% gc time)
  q=1.1, R=0.9:	  1.191524 seconds (266.62 k allocations: 38.459 MiB, 1.06% gc time)
  q=1.1, R=0.998:	 21.109990 seconds (114.96 k allocations: 7.588 MiB)
  q=1.1, R=1.0:	  0.004216 seconds (8.20 k allocations: 704.344 KiB)

ℓ = 1000
Δℓ = 4
ΔℓRg1 = -4
N = 4096
q = 1.1
kmin = 1.0e-5
kmax = 1000.0
χ0 = 0.001
RR = RR.tsv
ℓmax = ℓmax.bin
f21 = f21.bin
kmin = 1.0e-5
kmax = 1000.0
dlrec    = 4
dlrecRg1 = -4
Output size: 1573632 bytes = 0.0014655590057373047 GiB
Output size: 786816 bytes = 0.0007327795028686523 GiB
Reading 'out/F21EllCache'...   0.001362 seconds (198 allocations: 533.078 KiB)
ellmax: 1002
lmaxcache: 1000
fell[:,1,1] = ComplexF64[1.7262928128202118e-224 - 4.2281979352226944e-240im, 1.7282693092099662e-224 - 4.233038955177176e-240im]
ell 1002, elapsed: 0.00010704994201660156
ell 1001, elapsed: 0.0007441043853759766
ell 1000, elapsed: 0.0011339187622070312
ell 999, elapsed: 0.005521059036254883
ell 998, elapsed: 0.005706787109375
ell 44, elapsed: 0.7488601207733154
ell 43, elapsed: 0.006724119186401367
ell 42, elapsed: 0.006549835205078125
ell 41, elapsed: 0.005493879318237305
ell 40, elapsed: 0.005543947219848633
  0.794288 seconds (5.07 k allocations: 329.719 KiB)
elapsed: 0.006706953048706055
step:          0.74566 sec (0 allocations: 0 byte, 0.0% gc time)
swapping:      0.000573 sec (0 allocations: 0 byte, 0.0% gc time)
calc_Mellell!: 0.00111 sec (0 allocations: 0 byte, 0.0% gc time)
  t0 :  0.000546 sec (0 allocations: 0 byte, 0.0% gc time)
  tm2 : 0.010557 sec (0 allocations: 0 byte, 0.0% gc time)
  tm2s: 0.000383 sec (0 allocations: 0 byte, 0.0% gc time)
  tm4 : 0.028319 sec (0 allocations: 0 byte, 0.0% gc time)
  tp2 : 0.0 sec (0 allocations: 0 byte, 0.0% gc time)
  tp2s: 0.0 sec (0 allocations: 0 byte, 0.0% gc time)
  tp4 : 0.0 sec (0 allocations: 0 byte, 0.0% gc time)
calc_wtdll!:   0.040015 sec (480 allocations: 52.5 KB, 0.0% gc time)
calc_wljj!:    0.001503 sec (1 allocations: 16 byte, 0.0% gc time)
mult_prefac!:  0.0 sec (0 allocations: 0 byte, 0.0% gc time)
convert:       0.0 sec (0 allocations: 0 byte, 0.0% gc time)
write:         0.000943 sec (0 allocations: 0 byte, 0.0% gc time)
test_rand_2f1: 0.0 sec (0 allocations: 0 byte, 0.0% gc time)
Closing outfile out/MlCache/MlCache.bin...   0.000009 seconds
  0.482686 seconds (38 allocations: 66.859 KiB)
make_phi():   0.009973 seconds (65 allocations: 275.984 KiB)
  0.039283 seconds (11.51 k allocations: 716.413 KiB)
tskip:       1.0e-6 sec (0 allocations: 0 byte, 0.0% gc time)
tread:       0.000728 sec (17 allocations: 1.266 KB, 0.0% gc time)
tmultphi:    0.000362 sec (0 allocations: 0 byte, 0.0% gc time)
tbrfft:      0.001328 sec (0 allocations: 0 byte, 0.0% gc time)
tmultprefac: 0.000888 sec (0 allocations: 0 byte, 0.0% gc time)
toutfunc:    0.000145 sec (0 allocations: 0 byte, 0.0% gc time)
Created 'out/wl42_jj00.tsv'.
Created 'out/wl42_jj02.tsv'.
    Testing TwoFAST tests passed 
