Julia Version 1.4.0-DEV.660
Commit 27eb582279 (2019-12-23 19:29 UTC)
Platform Info:
  OS: Linux (x86_64-pc-linux-gnu)
  CPU: Intel(R) Xeon(R) Silver 4114 CPU @ 2.20GHz
  WORD_SIZE: 64
  LIBM: libopenlibm
  LLVM: libLLVM-8.0.1 (ORCJIT, skylake)
Environment:
  JULIA_DEPOT_PATH = ::/usr/local/share/julia

 Resolving package versions...
 Installed URIParser ──────── v0.4.0
 Installed IntelOpenMP_jll ── v2018.0.3+0
 Installed IncGammaBeta ───── v0.1.0
 Installed MKL_jll ────────── v2019.0.117+0
 Installed FFTW_jll ───────── v3.3.9+3
 Installed BinDeps ────────── v1.0.0
 Installed SpecialFunctions ─ v0.8.0
 Installed Reexport ───────── v0.2.0
 Installed AbstractFFTs ───── v0.5.0
 Installed FFTW ───────────── v1.2.0
 Installed BinaryProvider ─── v0.5.8
 Installed AbstractAlgebra ── v0.7.1
 Installed TwoFAST ────────── v0.1.0
 Installed Nemo ───────────── v0.15.1
  Updating `~/.julia/environments/v1.4/Project.toml`
  [0dd23c3e] + TwoFAST v0.1.0
  Updating `~/.julia/environments/v1.4/Manifest.toml`
  [c3fe647b] + AbstractAlgebra v0.7.1
  [621f4979] + AbstractFFTs v0.5.0
  [9e28174c] + BinDeps v1.0.0
  [b99e7846] + BinaryProvider v0.5.8
  [7a1cc6ca] + FFTW v1.2.0
  [f5851436] + FFTW_jll v3.3.9+3
  [5087d2c0] + IncGammaBeta v0.1.0
  [1d5cc7b8] + IntelOpenMP_jll v2018.0.3+0
  [856f044c] + MKL_jll v2019.0.117+0
  [2edaba10] + Nemo v0.15.1
  [189a3867] + Reexport v0.2.0
  [276daf66] + SpecialFunctions v0.8.0
  [0dd23c3e] + TwoFAST v0.1.0
  [30578b45] + URIParser v0.4.0
  [2a0f44e3] + Base64 
  [ade2ca70] + Dates 
  [8bb1440f] + DelimitedFiles 
  [8ba89e20] + Distributed 
  [b77e0a4c] + InteractiveUtils 
  [76f85450] + LibGit2 
  [8f399da3] + Libdl 
  [37e2e46d] + LinearAlgebra 
  [56ddb016] + Logging 
  [d6f4376e] + Markdown 
  [a63ad114] + Mmap 
  [44cfe95a] + Pkg 
  [de0858da] + Printf 
  [3fa0cd96] + REPL 
  [9a3f8284] + Random 
  [ea8e919c] + SHA 
  [9e88b42a] + Serialization 
  [6462fe0b] + Sockets 
  [2f01184e] + SparseArrays 
  [8dfed614] + Test 
  [cf7118a7] + UUIDs 
  [4ec0a83e] + Unicode 
  Building SpecialFunctions → `~/.julia/packages/SpecialFunctions/ne2iw/deps/build.log`
  Updating `/tmp/jl_Bu2ycv/Project.toml`
 [no changes]
  Updating `/tmp/jl_Bu2ycv/Manifest.toml`
 [no changes]
  Building FFTW ────────────→ `~/.julia/packages/FFTW/qqcBj/deps/build.log`
  Updating `/tmp/jl_AQX9kG/Project.toml`
 [no changes]
  Updating `/tmp/jl_AQX9kG/Manifest.toml`
 [no changes]
  Building Nemo ────────────→ `~/.julia/packages/Nemo/qzx0m/deps/build.log`
  Updating `/tmp/jl_jG6cUT/Project.toml`
 [no changes]
  Updating `/tmp/jl_jG6cUT/Manifest.toml`
 [no changes]
   Testing TwoFAST
 Installed Dierckx ─ v0.4.1
  Updating `/tmp/jl_sg87GS/Project.toml`
  [39dd38d3] + Dierckx v0.4.1
  Updating `/tmp/jl_sg87GS/Manifest.toml`
  [39dd38d3] + Dierckx v0.4.1
  Building Dierckx → `~/.julia/packages/Dierckx/9SY4A/deps/build.log`
  Updating `/tmp/jl_IRHQmS/Project.toml`
 [no changes]
  Updating `/tmp/jl_IRHQmS/Manifest.toml`
 [no changes]
Running sandbox
Status `/tmp/jl_sg87GS/Project.toml`
  [39dd38d3] Dierckx v0.4.1
  [7a1cc6ca] FFTW v1.2.0
  [5087d2c0] IncGammaBeta v0.1.0
  [2edaba10] Nemo v0.15.1
  [276daf66] SpecialFunctions v0.8.0
  [0dd23c3e] TwoFAST v0.1.0
  [8bb1440f] DelimitedFiles 
  [37e2e46d] LinearAlgebra 
  [56ddb016] Logging 
  [8dfed614] Test 

Welcome to Nemo version 0.15.1

Nemo comes with absolutely no warranty whatsoever


Welcome to Nemo version 0.15.1

Nemo comes with absolutely no warranty whatsoever

Testing ξ(r), ℓ=0, ν=-1 ... passed
Testing ξ(r), ℓ=0, ν=0 ... passed
Testing ξ(r), ℓ=0, ν=1 ... passed
Testing ξ(r), ℓ=0, ν=2 ... passed
Testing ξ(r), ℓ=0, ν=3 ... passed
Testing ξ(r), ℓ=1, ν=0 ... passed
Testing ξ(r), ℓ=1, ν=1 ... passed
Testing ξ(r), ℓ=1, ν=2 ... passed
Testing ξ(r), ℓ=1, ν=3 ... passed
Testing ξ(r), ℓ=2, ν=-1 ... passed
Testing ξ(r), ℓ=2, ν=0 ... passed
Testing ξ(r), ℓ=2, ν=1 ... passed
Testing ξ(r), ℓ=2, ν=2 ... passed
Testing ξ(r), ℓ=2, ν=3 ... passed
Testing ξ(r), ℓ=3, ν=-1 ... passed
Testing ξ(r), ℓ=3, ν=0 ... passed
Testing ξ(r), ℓ=3, ν=1 ... passed
Testing ξ(r), ℓ=3, ν=2 ... passed
Testing ξ(r), ℓ=3, ν=3 ... passed
Testing ξ(r), ℓ=4, ν=-1 ... passed
Testing ξ(r), ℓ=4, ν=0 ... passed
Testing ξ(r), ℓ=4, ν=1 ... passed
Testing ξ(r), ℓ=4, ν=2 ... passed
Testing ξ(r), ℓ=4, ν=3 ... passed
Testing ξ(r) ... passed
Testing ξ′(r) ... passed
Testing ξ″(r) ... passed
Calculating fmax: 
  dlrec    = 4
  dlrecRg1 = -4
  q=1.1, R=1.1:	  5.071258 seconds (1.20 M allocations: 67.954 MiB, 3.04% gc time)

  5.110633 seconds (1.22 M allocations: 69.064 MiB, 3.02% gc time)
ℓ = 1202
Δℓ = 4
ΔℓRg1 = -4
N = 1600
q = 1.1
kmin = 1.0e-5
kmax = 100000.00000000004
χ0 = 0.023029999999999995
RR = RR.tsv
ℓmax = ℓmax.bin
f21 = f21.bin
kmin = 1.0e-5
kmax = 100000.0
dlrec    = 4
dlrecRg1 = -4
Output size: 5741568 bytes = 0.005347251892089844 GiB
Output size: 51264 bytes = 4.774332046508789e-5 GiB
Reading 'out/F21EllCache'...   0.635638 seconds (318.67 k allocations: 16.395 MiB, 11.17% gc time)
ellmax: 1202
lmaxcache: 1202
fell[:,1,1] = Complex{Float64}[3.9583795592771634e-52 - 9.695233714158177e-68im, 3.990121772925759e-52 - 9.772979714843386e-68im]
ell 1202, elapsed: 0.0001499652862548828
ell 1201, elapsed: 2.21040415763855
ell 1200, elapsed: 0.0005238056182861328
ell 1199, elapsed: 0.0005011558532714844
ell 1198, elapsed: 0.0005249977111816406
ell 1002, elapsed: 0.009742975234985352
ell 1001, elapsed: 0.0004949569702148438
ell 1000, elapsed: 0.00047397613525390625
ell 999, elapsed: 0.0004830360412597656
ell 998, elapsed: 0.0005278587341308594
ell 902, elapsed: 0.00506901741027832
ell 901, elapsed: 0.0004949569702148438
ell 900, elapsed: 0.0004820823669433594
ell 899, elapsed: 0.00048089027404785156
ell 898, elapsed: 0.0004749298095703125
ell 802, elapsed: 0.005120038986206055
ell 801, elapsed: 0.0005550384521484375
ell 800, elapsed: 0.00047278404235839844
ell 799, elapsed: 0.00047278404235839844
ell 798, elapsed: 0.0005238056182861328
ell 702, elapsed: 0.0051038265228271484
ell 701, elapsed: 0.0005328655242919922
ell 700, elapsed: 0.0005040168762207031
ell 699, elapsed: 0.0005319118499755859
ell 698, elapsed: 0.0005719661712646484
ell 602, elapsed: 0.0050580501556396484
ell 601, elapsed: 0.0005009174346923828
ell 600, elapsed: 0.00048804283142089844
ell 599, elapsed: 0.0005018711090087891
ell 598, elapsed: 0.0005140304565429688
ell 502, elapsed: 0.0050160884857177734
ell 501, elapsed: 0.0004799365997314453
ell 500, elapsed: 0.0004658699035644531
ell 499, elapsed: 0.0005090236663818359
ell 498, elapsed: 0.0006108283996582031
ell 402, elapsed: 0.004984140396118164
ell 401, elapsed: 0.0004918575286865234
ell 400, elapsed: 0.0004820823669433594
ell 399, elapsed: 0.0004730224609375
ell 398, elapsed: 0.00046896934509277344
ell 302, elapsed: 0.0053539276123046875
ell 301, elapsed: 0.0004830360412597656
ell 300, elapsed: 0.00047707557678222656
ell 299, elapsed: 0.00047087669372558594
ell 298, elapsed: 0.00046896934509277344
ell 202, elapsed: 0.0052111148834228516
ell 201, elapsed: 0.0005421638488769531
ell 200, elapsed: 0.0005190372467041016
ell 199, elapsed: 0.0005140304565429688
ell 198, elapsed: 0.0004940032958984375
ell 152, elapsed: 0.0027158260345458984
ell 151, elapsed: 0.0004799365997314453
ell 150, elapsed: 0.0004839897155761719
ell 149, elapsed: 0.0004858970642089844
ell 148, elapsed: 0.00047898292541503906
ell 127, elapsed: 0.001741170883178711
ell 126, elapsed: 0.0004749298095703125
ell 125, elapsed: 0.0004711151123046875
ell 124, elapsed: 0.0004801750183105469
ell 123, elapsed: 0.0004940032958984375
ell 114, elapsed: 0.0008189678192138672
ell 113, elapsed: 0.0005979537963867188
ell 112, elapsed: 0.0005791187286376953
ell 111, elapsed: 0.0005810260772705078
ell 110, elapsed: 0.0005800724029541016
ell 102, elapsed: 0.0011410713195800781
ell 101, elapsed: 0.0005819797515869141
ell 100, elapsed: 0.0005919933319091797
ell 99, elapsed: 0.0005788803100585938
ell 98, elapsed: 0.0005791187286376953
ell 97, elapsed: 0.0006201267242431641
ell 96, elapsed: 0.0007300376892089844
ell 95, elapsed: 0.0006160736083984375
ell 94, elapsed: 0.0008161067962646484
ell 93, elapsed: 0.0006170272827148438
ell 92, elapsed: 0.000701904296875
ell 91, elapsed: 0.0006160736083984375
ell 90, elapsed: 0.0006909370422363281
ell 89, elapsed: 0.0007100105285644531
ell 88, elapsed: 0.0007138252258300781
ell 87, elapsed: 0.0006139278411865234
ell 86, elapsed: 0.0006999969482421875
ell 85, elapsed: 0.0006210803985595703
ell 84, elapsed: 0.0007030963897705078
ell 83, elapsed: 0.0006289482116699219
ell 82, elapsed: 0.000701904296875
ell 81, elapsed: 0.0006170272827148438
ell 80, elapsed: 0.0006899833679199219
ell 79, elapsed: 0.0006170272827148438
ell 78, elapsed: 0.0007011890411376953
ell 77, elapsed: 0.0006279945373535156
ell 76, elapsed: 0.0006999969482421875
ell 75, elapsed: 0.0006151199340820312
ell 74, elapsed: 0.0007011890411376953
ell 73, elapsed: 0.00061798095703125
ell 72, elapsed: 0.0006968975067138672
ell 71, elapsed: 0.0006248950958251953
ell 70, elapsed: 0.0006971359252929688
ell 69, elapsed: 0.0006189346313476562
ell 68, elapsed: 0.0007040500640869141
ell 67, elapsed: 0.00061798095703125
ell 66, elapsed: 0.0007159709930419922
ell 65, elapsed: 0.0006198883056640625
ell 64, elapsed: 0.0007050037384033203
ell 63, elapsed: 0.0006189346313476562
ell 62, elapsed: 0.0007140636444091797
ell 61, elapsed: 0.0006270408630371094
ell 60, elapsed: 0.0007109642028808594
ell 59, elapsed: 0.0006330013275146484
ell 58, elapsed: 0.0007081031799316406
ell 57, elapsed: 0.0006160736083984375
ell 56, elapsed: 0.0007040500640869141
ell 55, elapsed: 0.00061798095703125
ell 54, elapsed: 0.0008029937744140625
ell 53, elapsed: 0.0006170272827148438
ell 52, elapsed: 0.0007050037384033203
ell 51, elapsed: 0.0006260871887207031
ell 50, elapsed: 0.0007069110870361328
ell 49, elapsed: 0.0006239414215087891
ell 48, elapsed: 0.0008029937744140625
ell 47, elapsed: 0.0006220340728759766
ell 46, elapsed: 0.0007100105285644531
ell 45, elapsed: 0.0006289482116699219
ell 44, elapsed: 0.0007100105285644531
ell 43, elapsed: 0.0006341934204101562
ell 42, elapsed: 0.000720977783203125
ell 41, elapsed: 0.0006282329559326172
ell 40, elapsed: 0.0007188320159912109
ell 39, elapsed: 0.0006220340728759766
ell 38, elapsed: 0.0007050037384033203
ell 37, elapsed: 0.0006289482116699219
ell 36, elapsed: 0.0007181167602539062
ell 35, elapsed: 0.0006210803985595703
ell 34, elapsed: 0.0007059574127197266
ell 33, elapsed: 0.0006220340728759766
ell 32, elapsed: 0.0007560253143310547
ell 31, elapsed: 0.0006229877471923828
ell 30, elapsed: 0.0007109642028808594
ell 29, elapsed: 0.0006191730499267578
ell 28, elapsed: 0.0007030963897705078
ell 27, elapsed: 0.00061798095703125
ell 26, elapsed: 0.0007131099700927734
ell 25, elapsed: 0.0006201267242431641
ell 24, elapsed: 0.0007011890411376953
ell 23, elapsed: 0.00061798095703125
ell 22, elapsed: 0.0006999969482421875
ell 21, elapsed: 0.0006158351898193359
ell 20, elapsed: 0.0007150173187255859
ell 19, elapsed: 0.0006189346313476562
ell 18, elapsed: 0.0006978511810302734
ell 17, elapsed: 0.0006189346313476562
ell 16, elapsed: 0.0007040500640869141
ell 15, elapsed: 0.0006182193756103516
ell 14, elapsed: 0.0007097721099853516
ell 13, elapsed: 0.0006191730499267578
ell 12, elapsed: 0.0007028579711914062
ell 11, elapsed: 0.00061798095703125
ell 10, elapsed: 0.0007090568542480469
ell 9, elapsed: 0.00061798095703125
ell 8, elapsed: 0.0007061958312988281
ell 7, elapsed: 0.0006151199340820312
ell 6, elapsed: 0.0007159709930419922
ell 5, elapsed: 0.0006189346313476562
ell 4, elapsed: 0.0007159709930419922
ell 3, elapsed: 0.0006411075592041016
ell 2, elapsed: 0.000720977783203125
ell 1, elapsed: 0.0006220340728759766
ell 0, elapsed: 0.0007090568542480469
  3.094375 seconds (1.75 M allocations: 85.480 MiB, 2.15% gc time)
elapsed: 0.0007619857788085938
step:          0.750185 sec (402.561 k allocations: 20.278 MB, 0.0% gc time)
swapping:      0.000596 sec (0 allocations: 0 byte, 0.0% gc time)
calc_Mellell!: 0.553022 sec (296.4 k allocations: 14.959 MB, 0.0% gc time)
  t0 :  0.0 sec (0 allocations: 0 byte, 0.0% gc time)
  tm2 : 0.0 sec (0 allocations: 0 byte, 0.0% gc time)
  tm2s: 0.0 sec (0 allocations: 0 byte, 0.0% gc time)
  tm4 : 0.0 sec (0 allocations: 0 byte, 0.0% gc time)
  tp2 : 0.0 sec (0 allocations: 0 byte, 0.0% gc time)
  tp2s: 0.0 sec (0 allocations: 0 byte, 0.0% gc time)
  tp4 : 0.0 sec (0 allocations: 0 byte, 0.0% gc time)
calc_wtdll!:   1.043602 sec (525.86 k allocations: 26.378 MB, 4.19% gc time)
calc_wljj!:    0.003664 sec (6 allocations: 96 byte, 0.0% gc time)
mult_prefac!:  0.0 sec (0 allocations: 0 byte, 0.0% gc time)
convert:       0.0 sec (0 allocations: 0 byte, 0.0% gc time)
write:         0.00536 sec (0 allocations: 0 byte, 0.0% gc time)
test_rand_2f1: 0.0 sec (0 allocations: 0 byte, 0.0% gc time)
Closing outfile out/Ml21-cache.bin...   0.000114 seconds
  1.023964 seconds (8.66 k allocations: 420.969 KiB)
make_phi():   0.013305 seconds (8.20 k allocations: 238.016 KiB)
  0.233299 seconds (121.69 k allocations: 5.901 MiB)
tskip:       2.6e-5 sec (0 allocations: 0 byte, 0.0% gc time)
tread:       0.002499 sec (19 allocations: 2.172 KB, 0.0% gc time)
tmultphi:    0.039528 sec (26.022 k allocations: 1.338 MB, 0.0% gc time)
tbrfft:      0.004343 sec (896 allocations: 42.0 KB, 0.0% gc time)
tmultprefac: 0.003768 sec (0 allocations: 0 byte, 0.0% gc time)
toutfunc:    0.18304 sec (94.104 k allocations: 4.45 MB, 0.0% gc time)
Testing R=1.1 ... passed
Calculating fmax: 
  dlrec    = 4
  dlrecRg1 = -4
  q=1.1, R=1.0:	  0.001712 seconds (4.00 k allocations: 300.375 KiB)

  0.001890 seconds (4.04 k allocations: 334.734 KiB)
ℓ = 1202
Δℓ = 4
ΔℓRg1 = -4
N = 1600
q = 1.1
kmin = 1.0e-5
kmax = 100000.00000000004
χ0 = 0.023029999999999995
RR = RR.tsv
ℓmax = ℓmax.bin
f21 = f21.bin
kmin = 1.0e-5
kmax = 100000.0
dlrec    = 4
dlrecRg1 = -4
Output size: 61465536 bytes = 0.05724424123764038 GiB
Output size: 51264 bytes = 4.774332046508789e-5 GiB
Reading 'out/F21EllCache'...   0.001083 seconds (267 allocations: 84.656 KiB)
ellmax: 1202
lmaxcache: 1202
fell[:,1,1] = Complex{Float64}[809.6031528389767 - 1.9829558194077161e-13im, 0.0 + 0.0im]
ell 1202, elapsed: 2.7894973754882812e-5
ell 1201, elapsed: 0.01399993896484375
ell 1200, elapsed: 0.00038313865661621094
ell 1199, elapsed: 0.0003719329833984375
ell 1198, elapsed: 0.0003819465637207031
ell 1197, elapsed: 0.0004239082336425781
ell 1196, elapsed: 0.00040602684020996094
ell 1195, elapsed: 0.0005178451538085938
ell 1194, elapsed: 0.0004019737243652344
ell 1193, elapsed: 0.0004930496215820312
ell 1192, elapsed: 0.0004069805145263672
ell 1191, elapsed: 0.0005121231079101562
ell 1190, elapsed: 0.0004248619079589844
ell 1189, elapsed: 0.0005118846893310547
ell 1188, elapsed: 0.0004279613494873047
ell 1187, elapsed: 0.0004951953887939453
ell 1186, elapsed: 0.0004210472106933594
ell 1185, elapsed: 0.0004968643188476562
ell 1184, elapsed: 0.0004229545593261719
ell 1183, elapsed: 0.0004940032958984375
ell 1182, elapsed: 0.00041484832763671875
ell 1181, elapsed: 0.0004990100860595703
ell 1180, elapsed: 0.00041604042053222656
ell 1179, elapsed: 0.00049591064453125
ell 1178, elapsed: 0.00041413307189941406
ell 1177, elapsed: 0.0004990100860595703
ell 1176, elapsed: 0.00040912628173828125
ell 1175, elapsed: 0.0004761219024658203
ell 1174, elapsed: 0.0004150867462158203
ell 1173, elapsed: 0.0006530284881591797
ell 1172, elapsed: 0.00044989585876464844
ell 1171, elapsed: 0.0006759166717529297
ell 1170, elapsed: 0.0006098747253417969
ell 1169, elapsed: 0.0005891323089599609
ell 1168, elapsed: 0.00038909912109375
ell 1167, elapsed: 0.0005688667297363281
ell 1166, elapsed: 0.0004980564117431641
ell 1165, elapsed: 0.0007288455963134766
ell 1164, elapsed: 0.0005919933319091797
ell 1163, elapsed: 0.0005788803100585938
ell 1162, elapsed: 0.0003879070281982422
ell 1161, elapsed: 0.0004749298095703125
ell 1160, elapsed: 0.00048804283142089844
ell 1159, elapsed: 0.00046706199645996094
ell 1158, elapsed: 0.00038886070251464844
ell 1157, elapsed: 0.0004711151123046875
ell 1156, elapsed: 0.00038695335388183594
ell 1155, elapsed: 0.00047397613525390625
ell 1154, elapsed: 0.0004680156707763672
ell 1153, elapsed: 0.0006508827209472656
ell 1152, elapsed: 0.0004801750183105469
ell 1151, elapsed: 0.00047397613525390625
ell 1150, elapsed: 0.0003840923309326172
ell 1149, elapsed: 0.000576019287109375
ell 1148, elapsed: 0.0005190372467041016
ell 1147, elapsed: 0.0004780292510986328
ell 1146, elapsed: 0.0004940032958984375
ell 1145, elapsed: 0.0009548664093017578
ell 1144, elapsed: 0.0005850791931152344
ell 1143, elapsed: 0.0005388259887695312
ell 1142, elapsed: 0.0004858970642089844
ell 1141, elapsed: 0.0006201267242431641
ell 1140, elapsed: 0.0003819465637207031
ell 1139, elapsed: 0.00047087669372558594
ell 1138, elapsed: 0.0003190040588378906
ell 1137, elapsed: 0.0003838539123535156
ell 1136, elapsed: 0.0003058910369873047
ell 1135, elapsed: 0.0003731250762939453
ell 1134, elapsed: 0.00032401084899902344
ell 1133, elapsed: 0.0003781318664550781
ell 1132, elapsed: 0.0003170967102050781
ell 1131, elapsed: 0.0003769397735595703
ell 1130, elapsed: 0.0003159046173095703
ell 1129, elapsed: 0.00037288665771484375
ell 1128, elapsed: 0.0003399848937988281
ell 1127, elapsed: 0.00036787986755371094
ell 1126, elapsed: 0.0003039836883544922
ell 1125, elapsed: 0.0003631114959716797
ell 1124, elapsed: 0.00030493736267089844
ell 1123, elapsed: 0.00036406517028808594
ell 1122, elapsed: 0.00030517578125
ell 1121, elapsed: 0.0003669261932373047
ell 1120, elapsed: 0.0003230571746826172
ell 1119, elapsed: 0.0003859996795654297
ell 1118, elapsed: 0.0003490447998046875
ell 1117, elapsed: 0.0006339550018310547
ell 1116, elapsed: 0.0004730224609375
ell 1115, elapsed: 0.0004558563232421875
ell 1114, elapsed: 0.0005538463592529297
ell 1113, elapsed: 0.0007281303405761719
ell 1112, elapsed: 0.0004611015319824219
ell 1111, elapsed: 0.0007259845733642578
ell 1110, elapsed: 0.0006039142608642578
ell 1109, elapsed: 0.0006220340728759766
ell 1108, elapsed: 0.0005328655242919922
ell 1107, elapsed: 0.0007238388061523438
ell 1106, elapsed: 0.0005168914794921875
ell 1105, elapsed: 0.0007951259613037109
ell 1104, elapsed: 0.00043487548828125
ell 1103, elapsed: 0.0004730224609375
ell 1102, elapsed: 0.0004930496215820312
ell 1101, elapsed: 0.0006029605865478516
ell 1100, elapsed: 0.00038814544677734375
ell 1099, elapsed: 0.0005879402160644531
ell 1098, elapsed: 0.0005900859832763672
ell 1097, elapsed: 0.00037479400634765625
ell 1096, elapsed: 0.0003070831298828125
ell 1095, elapsed: 0.0005381107330322266
ell 1094, elapsed: 0.0004241466522216797
ell 1093, elapsed: 0.0003941059112548828
ell 1092, elapsed: 0.0003209114074707031
ell 1091, elapsed: 0.0003859996795654297
ell 1090, elapsed: 0.0003151893615722656
ell 1089, elapsed: 0.0004169940948486328
ell 1088, elapsed: 0.0003190040588378906
ell 1087, elapsed: 0.0005280971527099609
ell 1086, elapsed: 0.00041794776916503906
ell 1085, elapsed: 0.0003800392150878906
ell 1084, elapsed: 0.0003180503845214844
ell 1083, elapsed: 0.0003788471221923828
ell 1082, elapsed: 0.0003159046173095703
ell 1081, elapsed: 0.0005409717559814453
ell 1080, elapsed: 0.0004761219024658203
ell 1079, elapsed: 0.00038909912109375
ell 1078, elapsed: 0.0003161430358886719
ell 1077, elapsed: 0.0003859996795654297
ell 1076, elapsed: 0.0003161430358886719
ell 1075, elapsed: 0.00037407875061035156
ell 1074, elapsed: 0.0003190040588378906
ell 1073, elapsed: 0.00039005279541015625
ell 1072, elapsed: 0.0003020763397216797
ell 1071, elapsed: 0.0003650188446044922
ell 1070, elapsed: 0.0003070831298828125
ell 1069, elapsed: 0.0003879070281982422
ell 1068, elapsed: 0.0005738735198974609
ell 1067, elapsed: 0.0005729198455810547
ell 1066, elapsed: 0.0005841255187988281
ell 1065, elapsed: 0.0006189346313476562
ell 1064, elapsed: 0.0005528926849365234
ell 1063, elapsed: 0.0005831718444824219
ell 1062, elapsed: 0.0004930496215820312
ell 1061, elapsed: 0.0006520748138427734
ell 1060, elapsed: 0.0004749298095703125
ell 1059, elapsed: 0.0006830692291259766
ell 1058, elapsed: 0.0005970001220703125
ell 1057, elapsed: 0.0007848739624023438
ell 1056, elapsed: 0.0005428791046142578
ell 1055, elapsed: 0.0006709098815917969
ell 1054, elapsed: 0.00045990943908691406
ell 1053, elapsed: 0.0004649162292480469
ell 1052, elapsed: 0.00040411949157714844
ell 1051, elapsed: 0.0006849765777587891
ell 1050, elapsed: 0.0006110668182373047
ell 1049, elapsed: 0.0005679130554199219
ell 1048, elapsed: 0.0005571842193603516
ell 1047, elapsed: 0.0005888938903808594
ell 1046, elapsed: 0.0005800724029541016
ell 1045, elapsed: 0.0007660388946533203
ell 1044, elapsed: 0.0005018711090087891
ell 1043, elapsed: 0.00067901611328125
ell 1042, elapsed: 0.0006330013275146484
ell 1041, elapsed: 0.0005688667297363281
ell 1040, elapsed: 0.0004909038543701172
ell 1039, elapsed: 0.0006220340728759766
ell 1038, elapsed: 0.0006611347198486328
ell 1037, elapsed: 0.0006580352783203125
ell 1036, elapsed: 0.0003941059112548828
ell 1035, elapsed: 0.00047397613525390625
ell 1034, elapsed: 0.0003921985626220703
ell 1033, elapsed: 0.0004830360412597656
ell 1032, elapsed: 0.0004000663757324219
ell 1031, elapsed: 0.0004818439483642578
ell 1030, elapsed: 0.00039505958557128906
ell 1029, elapsed: 0.0006489753723144531
ell 1028, elapsed: 0.0006158351898193359
ell 1027, elapsed: 0.0005650520324707031
ell 1026, elapsed: 0.0003840923309326172
ell 1025, elapsed: 0.0004699230194091797
ell 1024, elapsed: 0.0003879070281982422
ell 1023, elapsed: 0.00047206878662109375
ell 1022, elapsed: 0.0004699230194091797
ell 1021, elapsed: 0.00047898292541503906
ell 1020, elapsed: 0.0005018711090087891
ell 1019, elapsed: 0.0005919933319091797
ell 1018, elapsed: 0.0003821849822998047
ell 1017, elapsed: 0.0004680156707763672
ell 1016, elapsed: 0.00038313865661621094
ell 1015, elapsed: 0.00046706199645996094
ell 1014, elapsed: 0.0005259513854980469
ell 1013, elapsed: 0.0004799365997314453
ell 1012, elapsed: 0.0003979206085205078
ell 1011, elapsed: 0.0004820823669433594
ell 1010, elapsed: 0.0003848075866699219
ell 1009, elapsed: 0.0004699230194091797
ell 1008, elapsed: 0.00048089027404785156
ell 1007, elapsed: 0.0006439685821533203
ell 1006, elapsed: 0.0005450248718261719
ell 1005, elapsed: 0.0005259513854980469
ell 1004, elapsed: 0.00045299530029296875
ell 1003, elapsed: 0.0004730224609375
ell 1002, elapsed: 0.0003879070281982422
ell 1001, elapsed: 0.0004611015319824219
ell 1000, elapsed: 0.00038814544677734375
ell 999, elapsed: 0.0005350112915039062
ell 998, elapsed: 0.00038909912109375
ell 997, elapsed: 0.0004570484161376953
ell 996, elapsed: 0.0003840923309326172
ell 995, elapsed: 0.0004570484161376953
ell 994, elapsed: 0.0003829002380371094
ell 993, elapsed: 0.00045609474182128906
ell 992, elapsed: 0.0003809928894042969
ell 991, elapsed: 0.00045180320739746094
ell 990, elapsed: 0.00045108795166015625
ell 989, elapsed: 0.0006470680236816406
ell 988, elapsed: 0.0006060600280761719
ell 987, elapsed: 0.0007271766662597656
ell 986, elapsed: 0.0006129741668701172
ell 985, elapsed: 0.0005929470062255859
ell 984, elapsed: 0.0005140304565429688
ell 983, elapsed: 0.0004699230194091797
ell 982, elapsed: 0.00038313865661621094
ell 981, elapsed: 0.0004680156707763672
ell 980, elapsed: 0.00039196014404296875
ell 979, elapsed: 0.0004699230194091797
ell 978, elapsed: 0.0003821849822998047
ell 977, elapsed: 0.0006248950958251953
ell 976, elapsed: 0.0006010532379150391
ell 975, elapsed: 0.0005271434783935547
ell 974, elapsed: 0.000579833984375
ell 973, elapsed: 0.000598907470703125
ell 972, elapsed: 0.0004639625549316406
ell 971, elapsed: 0.0005500316619873047
ell 970, elapsed: 0.0005888938903808594
ell 969, elapsed: 0.0005559921264648438
ell 968, elapsed: 0.0006000995635986328
ell 967, elapsed: 0.0005738735198974609
ell 966, elapsed: 0.000640869140625
ell 965, elapsed: 0.0006248950958251953
ell 964, elapsed: 0.00047707557678222656
ell 963, elapsed: 0.00045299530029296875
ell 962, elapsed: 0.0005211830139160156
ell 961, elapsed: 0.0007200241088867188
ell 960, elapsed: 0.0006079673767089844
ell 959, elapsed: 0.0008280277252197266
ell 958, elapsed: 0.00048613548278808594
ell 957, elapsed: 0.0006401538848876953
ell 956, elapsed: 0.0003829002380371094
ell 955, elapsed: 0.0006301403045654297
ell 954, elapsed: 0.00046515464782714844
ell 953, elapsed: 0.0004570484161376953
ell 952, elapsed: 0.0005228519439697266
ell 951, elapsed: 0.0004749298095703125
ell 950, elapsed: 0.0003829002380371094
ell 949, elapsed: 0.000621795654296875
ell 948, elapsed: 0.00047898292541503906
ell 947, elapsed: 0.0004589557647705078
ell 946, elapsed: 0.0005109310150146484
ell 945, elapsed: 0.0007710456848144531
ell 944, elapsed: 0.0005841255187988281
ell 943, elapsed: 0.0006470680236816406
ell 942, elapsed: 0.0005071163177490234
ell 941, elapsed: 0.0006279945373535156
ell 940, elapsed: 0.0003838539123535156
ell 939, elapsed: 0.0004608631134033203
ell 938, elapsed: 0.0005259513854980469
ell 937, elapsed: 0.0005350112915039062
ell 936, elapsed: 0.0003840923309326172
ell 935, elapsed: 0.0005891323089599609
ell 934, elapsed: 0.0006110668182373047
ell 933, elapsed: 0.0007300376892089844
ell 932, elapsed: 0.0006120204925537109
ell 931, elapsed: 0.0007641315460205078
ell 930, elapsed: 0.0006909370422363281
ell 929, elapsed: 0.0008380413055419922
ell 928, elapsed: 0.0006091594696044922
ell 927, elapsed: 0.0006010532379150391
ell 926, elapsed: 0.00038504600524902344
ell 925, elapsed: 0.0004668235778808594
ell 924, elapsed: 0.0003840923309326172
ell 923, elapsed: 0.0004661083221435547
ell 922, elapsed: 0.00038504600524902344
ell 921, elapsed: 0.0004680156707763672
ell 920, elapsed: 0.00038695335388183594
ell 919, elapsed: 0.0006191730499267578
ell 918, elapsed: 0.00045800209045410156
ell 917, elapsed: 0.0005290508270263672
ell 916, elapsed: 0.0004439353942871094
ell 915, elapsed: 0.0005369186401367188
ell 914, elapsed: 0.0004470348358154297
ell 913, elapsed: 0.0005490779876708984
ell 912, elapsed: 0.00045013427734375
ell 911, elapsed: 0.0005319118499755859
ell 910, elapsed: 0.00044608116149902344
ell 909, elapsed: 0.00048804283142089844
ell 908, elapsed: 0.0003941059112548828
ell 907, elapsed: 0.00047397613525390625
ell 906, elapsed: 0.0004057884216308594
ell 905, elapsed: 0.00047206878662109375
ell 904, elapsed: 0.0003800392150878906
ell 903, elapsed: 0.0004649162292480469
ell 902, elapsed: 0.00038886070251464844
ell 901, elapsed: 0.000469207763671875
ell 900, elapsed: 0.0003960132598876953
ell 899, elapsed: 0.0004911422729492188
ell 898, elapsed: 0.0004909038543701172
ell 897, elapsed: 0.0004761219024658203
ell 896, elapsed: 0.00039196014404296875
ell 895, elapsed: 0.0004749298095703125
ell 894, elapsed: 0.00038814544677734375
ell 893, elapsed: 0.0005919933319091797
ell 892, elapsed: 0.0005080699920654297
ell 891, elapsed: 0.00047016143798828125
ell 890, elapsed: 0.0004761219024658203
ell 889, elapsed: 0.00047707557678222656
ell 888, elapsed: 0.00038909912109375
ell 887, elapsed: 0.0004699230194091797
ell 886, elapsed: 0.0003829002380371094
ell 885, elapsed: 0.0004699230194091797
ell 884, elapsed: 0.00038504600524902344
ell 883, elapsed: 0.0004811286926269531
ell 882, elapsed: 0.0003840923309326172
ell 881, elapsed: 0.0005640983581542969
ell 880, elapsed: 0.0003871917724609375
ell 879, elapsed: 0.0006258487701416016
ell 878, elapsed: 0.0004661083221435547
ell 877, elapsed: 0.00046896934509277344
ell 876, elapsed: 0.00039005279541015625
ell 875, elapsed: 0.0004730224609375
ell 874, elapsed: 0.0003829002380371094
ell 873, elapsed: 0.0004761219024658203
ell 872, elapsed: 0.0003871917724609375
ell 871, elapsed: 0.0005829334259033203
ell 870, elapsed: 0.0005049705505371094
ell 869, elapsed: 0.0004761219024658203
ell 868, elapsed: 0.00038909912109375
ell 867, elapsed: 0.0004718303680419922
ell 866, elapsed: 0.0004220008850097656
ell 865, elapsed: 0.0006458759307861328
ell 864, elapsed: 0.00043487548828125
ell 863, elapsed: 0.00048089027404785156
ell 862, elapsed: 0.0005228519439697266
ell 861, elapsed: 0.0005819797515869141
ell 860, elapsed: 0.00038504600524902344
ell 859, elapsed: 0.00067901611328125
ell 858, elapsed: 0.0005209445953369141
ell 857, elapsed: 0.0007429122924804688
ell 856, elapsed: 0.0006158351898193359
ell 855, elapsed: 0.0007240772247314453
ell 854, elapsed: 0.0006051063537597656
ell 853, elapsed: 0.00074005126953125
ell 852, elapsed: 0.0006079673767089844
ell 851, elapsed: 0.0007100105285644531
ell 850, elapsed: 0.0006089210510253906
ell 849, elapsed: 0.0007081031799316406
ell 848, elapsed: 0.0006079673767089844
ell 847, elapsed: 0.0007359981536865234
ell 846, elapsed: 0.0006120204925537109
ell 845, elapsed: 0.0007181167602539062
ell 844, elapsed: 0.0006031990051269531
ell 843, elapsed: 0.0007169246673583984
ell 842, elapsed: 0.0006229877471923828
ell 841, elapsed: 0.0007278919219970703
ell 840, elapsed: 0.0006129741668701172
ell 839, elapsed: 0.0007228851318359375
ell 838, elapsed: 0.0006048679351806641
ell 837, elapsed: 0.0007090568542480469
ell 836, elapsed: 0.0006289482116699219
ell 835, elapsed: 0.0007250308990478516
ell 834, elapsed: 0.0006051063537597656
ell 833, elapsed: 0.0007169246673583984
ell 832, elapsed: 0.0006070137023925781
ell 831, elapsed: 0.000720977783203125
ell 830, elapsed: 0.00061798095703125
ell 829, elapsed: 0.0007200241088867188
ell 828, elapsed: 0.0006079673767089844
ell 827, elapsed: 0.0007128715515136719
ell 826, elapsed: 0.0006079673767089844
ell 825, elapsed: 0.0008568763732910156
ell 824, elapsed: 0.0006170272827148438
ell 823, elapsed: 0.000720977783203125
ell 822, elapsed: 0.0006060600280761719
ell 821, elapsed: 0.0007159709930419922
ell 820, elapsed: 0.0006070137023925781
ell 819, elapsed: 0.0007219314575195312
ell 818, elapsed: 0.0003719329833984375
ell 817, elapsed: 0.00044918060302734375
ell 816, elapsed: 0.000370025634765625
ell 815, elapsed: 0.0004410743713378906
ell 814, elapsed: 0.0003731250762939453
ell 813, elapsed: 0.00045490264892578125
ell 812, elapsed: 0.0003769397735595703
ell 811, elapsed: 0.0005578994750976562
ell 810, elapsed: 0.0004999637603759766
ell 809, elapsed: 0.0007221698760986328
ell 808, elapsed: 0.0006048679351806641
ell 807, elapsed: 0.0007128715515136719
ell 806, elapsed: 0.0006089210510253906
ell 805, elapsed: 0.0008108615875244141
ell 804, elapsed: 0.0006139278411865234
ell 803, elapsed: 0.0007181167602539062
ell 802, elapsed: 0.0006079673767089844
ell 801, elapsed: 0.0007190704345703125
ell 800, elapsed: 0.0006051063537597656
ell 799, elapsed: 0.0007359981536865234
ell 798, elapsed: 0.0006051063537597656
ell 797, elapsed: 0.0007128715515136719
ell 796, elapsed: 0.0006120204925537109
ell 795, elapsed: 0.0007059574127197266
ell 794, elapsed: 0.0007011890411376953
ell 793, elapsed: 0.0007240772247314453
ell 792, elapsed: 0.0006139278411865234
ell 791, elapsed: 0.0007159709930419922
ell 790, elapsed: 0.0006120204925537109
ell 789, elapsed: 0.0008280277252197266
ell 788, elapsed: 0.00047588348388671875
ell 787, elapsed: 0.0005619525909423828
ell 786, elapsed: 0.0006139278411865234
ell 785, elapsed: 0.0007190704345703125
ell 784, elapsed: 0.0005090236663818359
ell 783, elapsed: 0.000823974609375
ell 782, elapsed: 0.0003960132598876953
ell 781, elapsed: 0.00046896934509277344
ell 780, elapsed: 0.0005068778991699219
ell 779, elapsed: 0.0006010532379150391
ell 778, elapsed: 0.0005559921264648438
ell 777, elapsed: 0.0007491111755371094
ell 776, elapsed: 0.0007288455963134766
ell 775, elapsed: 0.0007290840148925781
ell 774, elapsed: 0.00061798095703125
ell 773, elapsed: 0.0007300376892089844
ell 772, elapsed: 0.000614166259765625
ell 771, elapsed: 0.0008251667022705078
ell 770, elapsed: 0.0005078315734863281
ell 769, elapsed: 0.0004639625549316406
ell 768, elapsed: 0.0003879070281982422
ell 767, elapsed: 0.0005369186401367188
ell 766, elapsed: 0.0006089210510253906
ell 765, elapsed: 0.0006220340728759766
ell 764, elapsed: 0.0006399154663085938
ell 763, elapsed: 0.0005490779876708984
ell 762, elapsed: 0.0004940032958984375
ell 761, elapsed: 0.0006501674652099609
ell 760, elapsed: 0.000392913818359375
ell 759, elapsed: 0.0006239414215087891
ell 758, elapsed: 0.0004889965057373047
ell 757, elapsed: 0.0006659030914306641
ell 756, elapsed: 0.0005288124084472656
ell 755, elapsed: 0.0004830360412597656
ell 754, elapsed: 0.0005199909210205078
ell 753, elapsed: 0.0007190704345703125
ell 752, elapsed: 0.0005979537963867188
ell 751, elapsed: 0.0006630420684814453
ell 750, elapsed: 0.000392913818359375
ell 749, elapsed: 0.0006260871887207031
ell 748, elapsed: 0.0006189346313476562
ell 747, elapsed: 0.0005559921264648438
ell 746, elapsed: 0.00047898292541503906
ell 745, elapsed: 0.0006618499755859375
ell 744, elapsed: 0.0004949569702148438
ell 743, elapsed: 0.0007131099700927734
ell 742, elapsed: 0.0005638599395751953
ell 741, elapsed: 0.0006680488586425781
ell 740, elapsed: 0.00039577484130859375
ell 739, elapsed: 0.0005788803100585938
ell 738, elapsed: 0.0004839897155761719
ell 737, elapsed: 0.00044083595275878906
ell 736, elapsed: 0.0003979206085205078
ell 735, elapsed: 0.0006918907165527344
ell 734, elapsed: 0.0005450248718261719
ell 733, elapsed: 0.0007500648498535156
ell 732, elapsed: 0.0006279945373535156
ell 731, elapsed: 0.0005748271942138672
ell 730, elapsed: 0.0003910064697265625
ell 729, elapsed: 0.0004811286926269531
ell 728, elapsed: 0.0003960132598876953
ell 727, elapsed: 0.0004780292510986328
ell 726, elapsed: 0.00039505958557128906
ell 725, elapsed: 0.0006749629974365234
ell 724, elapsed: 0.0005269050598144531
ell 723, elapsed: 0.0006160736083984375
ell 722, elapsed: 0.0005559921264648438
ell 721, elapsed: 0.0005700588226318359
ell 720, elapsed: 0.0003819465637207031
ell 719, elapsed: 0.0005338191986083984
ell 718, elapsed: 0.0005340576171875
ell 717, elapsed: 0.0006558895111083984
ell 716, elapsed: 0.0006020069122314453
ell 715, elapsed: 0.0005991458892822266
ell 714, elapsed: 0.0003039836883544922
ell 713, elapsed: 0.0003581047058105469
ell 712, elapsed: 0.0002980232238769531
ell 711, elapsed: 0.00035190582275390625
ell 710, elapsed: 0.0002930164337158203
ell 709, elapsed: 0.0003528594970703125
ell 708, elapsed: 0.0002968311309814453
ell 707, elapsed: 0.0003829002380371094
ell 706, elapsed: 0.0002949237823486328
ell 705, elapsed: 0.0003941059112548828
ell 704, elapsed: 0.0002970695495605469
ell 703, elapsed: 0.00035500526428222656
ell 702, elapsed: 0.0003001689910888672
ell 701, elapsed: 0.0003559589385986328
ell 700, elapsed: 0.0003001689910888672
ell 699, elapsed: 0.0003600120544433594
ell 698, elapsed: 0.0002970695495605469
ell 697, elapsed: 0.00035500526428222656
ell 696, elapsed: 0.0003180503845214844
ell 695, elapsed: 0.00036215782165527344
ell 694, elapsed: 0.0005590915679931641
ell 693, elapsed: 0.0007197856903076172
ell 692, elapsed: 0.0006051063537597656
ell 691, elapsed: 0.0007190704345703125
ell 690, elapsed: 0.0005979537963867188
ell 689, elapsed: 0.0007340908050537109
ell 688, elapsed: 0.0006060600280761719
ell 687, elapsed: 0.0007069110870361328
ell 686, elapsed: 0.0006060600280761719
ell 685, elapsed: 0.0007061958312988281
ell 684, elapsed: 0.0006198883056640625
ell 683, elapsed: 0.0007090568542480469
ell 682, elapsed: 0.0006029605865478516
ell 681, elapsed: 0.0007040500640869141
ell 680, elapsed: 0.0005958080291748047
ell 679, elapsed: 0.0005338191986083984
ell 678, elapsed: 0.0003199577331542969
ell 677, elapsed: 0.0003809928894042969
ell 676, elapsed: 0.0002942085266113281
ell 675, elapsed: 0.0003540515899658203
ell 674, elapsed: 0.0002930164337158203
ell 673, elapsed: 0.00035190582275390625
ell 672, elapsed: 0.00029397010803222656
ell 671, elapsed: 0.00035691261291503906
ell 670, elapsed: 0.00029397010803222656
ell 669, elapsed: 0.0003590583801269531
ell 668, elapsed: 0.0002930164337158203
ell 667, elapsed: 0.0003509521484375
ell 666, elapsed: 0.00036406517028808594
ell 665, elapsed: 0.0005300045013427734
ell 664, elapsed: 0.0004410743713378906
ell 663, elapsed: 0.0005259513854980469
ell 662, elapsed: 0.0004458427429199219
ell 661, elapsed: 0.0005259513854980469
ell 660, elapsed: 0.0004429817199707031
ell 659, elapsed: 0.0005199909210205078
ell 658, elapsed: 0.0005130767822265625
ell 657, elapsed: 0.0004990100860595703
ell 656, elapsed: 0.0004229545593261719
ell 655, elapsed: 0.0005021095275878906
ell 654, elapsed: 0.0004181861877441406
ell 653, elapsed: 0.0005021095275878906
ell 652, elapsed: 0.00041794776916503906
ell 651, elapsed: 0.0005030632019042969
ell 650, elapsed: 0.0005118846893310547
ell 649, elapsed: 0.0005199909210205078
ell 648, elapsed: 0.00043582916259765625
ell 647, elapsed: 0.0005199909210205078
ell 646, elapsed: 0.0004341602325439453
ell 645, elapsed: 0.0005171298980712891
ell 644, elapsed: 0.0004379749298095703
ell 643, elapsed: 0.0005369186401367188
ell 642, elapsed: 0.00043702125549316406
ell 641, elapsed: 0.0005209445953369141
ell 640, elapsed: 0.00043487548828125
ell 639, elapsed: 0.0005221366882324219
ell 638, elapsed: 0.0004360675811767578
ell 637, elapsed: 0.0005180835723876953
ell 636, elapsed: 0.0004341602325439453
ell 635, elapsed: 0.0005278587341308594
ell 634, elapsed: 0.0004410743713378906
ell 633, elapsed: 0.0005409717559814453
ell 632, elapsed: 0.00042891502380371094
ell 631, elapsed: 0.0005288124084472656
ell 630, elapsed: 0.0004341602325439453
ell 629, elapsed: 0.0005180835723876953
ell 628, elapsed: 0.0004458427429199219
ell 627, elapsed: 0.0005178451538085938
ell 626, elapsed: 0.0004329681396484375
ell 625, elapsed: 0.0005221366882324219
ell 624, elapsed: 0.0004458427429199219
ell 623, elapsed: 0.0005309581756591797
ell 622, elapsed: 0.0004429817199707031
ell 621, elapsed: 0.0005290508270263672
ell 620, elapsed: 0.00045299530029296875
ell 619, elapsed: 0.0005240440368652344
ell 618, elapsed: 0.00043511390686035156
ell 617, elapsed: 0.0005230903625488281
ell 616, elapsed: 0.0005350112915039062
ell 615, elapsed: 0.0007150173187255859
ell 614, elapsed: 0.0006208419799804688
ell 613, elapsed: 0.0007119178771972656
ell 612, elapsed: 0.0006070137023925781
ell 611, elapsed: 0.0007290840148925781
ell 610, elapsed: 0.0006239414215087891
ell 609, elapsed: 0.0007181167602539062
ell 608, elapsed: 0.00045990943908691406
ell 607, elapsed: 0.0006430149078369141
ell 606, elapsed: 0.0006031990051269531
ell 605, elapsed: 0.0007011890411376953
ell 604, elapsed: 0.000598907470703125
ell 603, elapsed: 0.0007100105285644531
ell 602, elapsed: 0.0005521774291992188
ell 601, elapsed: 0.0006241798400878906
ell 600, elapsed: 0.0005230903625488281
ell 599, elapsed: 0.000476837158203125
ell 598, elapsed: 0.0002949237823486328
ell 597, elapsed: 0.0003380775451660156
ell 596, elapsed: 0.0002789497375488281
ell 595, elapsed: 0.00033283233642578125
ell 594, elapsed: 0.0002779960632324219
ell 593, elapsed: 0.0003330707550048828
ell 592, elapsed: 0.00041985511779785156
ell 591, elapsed: 0.0005130767822265625
ell 590, elapsed: 0.0005788803100585938
ell 589, elapsed: 0.0006380081176757812
ell 588, elapsed: 0.00041985511779785156
ell 587, elapsed: 0.0006279945373535156
ell 586, elapsed: 0.0005788803100585938
ell 585, elapsed: 0.0006458759307861328
ell 584, elapsed: 0.00051116943359375
ell 583, elapsed: 0.0005061626434326172
ell 582, elapsed: 0.0004169940948486328
ell 581, elapsed: 0.0006899833679199219
ell 580, elapsed: 0.0005280971527099609
ell 579, elapsed: 0.0005249977111816406
ell 578, elapsed: 0.0004181861877441406
ell 577, elapsed: 0.0004990100860595703
ell 576, elapsed: 0.0004210472106933594
ell 575, elapsed: 0.0004990100860595703
ell 574, elapsed: 0.0004189014434814453
ell 573, elapsed: 0.0005028247833251953
ell 572, elapsed: 0.0004200935363769531
ell 571, elapsed: 0.0004949569702148438
ell 570, elapsed: 0.0005788803100585938
ell 569, elapsed: 0.0005929470062255859
ell 568, elapsed: 0.0004169940948486328
ell 567, elapsed: 0.0005018711090087891
ell 566, elapsed: 0.0004220008850097656
ell 565, elapsed: 0.0005052089691162109
ell 564, elapsed: 0.00043010711669921875
ell 563, elapsed: 0.0005462169647216797
ell 562, elapsed: 0.00042891502380371094
ell 561, elapsed: 0.000514984130859375
ell 560, elapsed: 0.00041985511779785156
ell 559, elapsed: 0.0005049705505371094
ell 558, elapsed: 0.0004169940948486328
ell 557, elapsed: 0.0005021095275878906
ell 556, elapsed: 0.0004169940948486328
ell 555, elapsed: 0.0005362033843994141
ell 554, elapsed: 0.0006039142608642578
ell 553, elapsed: 0.0005731582641601562
ell 552, elapsed: 0.0004258155822753906
ell 551, elapsed: 0.0005059242248535156
ell 550, elapsed: 0.0004200935363769531
ell 549, elapsed: 0.0005011558532714844
ell 548, elapsed: 0.0004220008850097656
ell 547, elapsed: 0.0005159378051757812
ell 546, elapsed: 0.0004210472106933594
ell 545, elapsed: 0.0006120204925537109
ell 544, elapsed: 0.0005221366882324219
ell 543, elapsed: 0.0004990100860595703
ell 542, elapsed: 0.00043392181396484375
ell 541, elapsed: 0.0005090236663818359
ell 540, elapsed: 0.0004279613494873047
ell 539, elapsed: 0.0004999637603759766
ell 538, elapsed: 0.0004191398620605469
ell 537, elapsed: 0.0005040168762207031
ell 536, elapsed: 0.0004200935363769531
ell 535, elapsed: 0.0005049705505371094
ell 534, elapsed: 0.0004210472106933594
ell 533, elapsed: 0.0005009174346923828
ell 532, elapsed: 0.00043892860412597656
ell 531, elapsed: 0.0005841255187988281
ell 530, elapsed: 0.0006411075592041016
ell 529, elapsed: 0.00055694580078125
ell 528, elapsed: 0.00041484832763671875
ell 527, elapsed: 0.0005018711090087891
ell 526, elapsed: 0.00041484832763671875
ell 525, elapsed: 0.0005080699920654297
ell 524, elapsed: 0.000431060791015625
ell 523, elapsed: 0.0005218982696533203
ell 522, elapsed: 0.0004191398620605469
ell 521, elapsed: 0.0005030632019042969
ell 520, elapsed: 0.0004169940948486328
ell 519, elapsed: 0.0004949569702148438
ell 518, elapsed: 0.0004169940948486328
ell 517, elapsed: 0.0004878044128417969
ell 516, elapsed: 0.00044083595275878906
ell 515, elapsed: 0.0005040168762207031
ell 514, elapsed: 0.0004208087921142578
ell 513, elapsed: 0.0005071163177490234
ell 512, elapsed: 0.000431060791015625
ell 511, elapsed: 0.0005011558532714844
ell 510, elapsed: 0.0004169940948486328
ell 509, elapsed: 0.0005028247833251953
ell 508, elapsed: 0.0005860328674316406
ell 507, elapsed: 0.0007200241088867188
ell 506, elapsed: 0.000431060791015625
ell 505, elapsed: 0.0005030632019042969
ell 504, elapsed: 0.0004229545593261719
ell 503, elapsed: 0.0006990432739257812
ell 502, elapsed: 0.0006079673767089844
ell 501, elapsed: 0.0005121231079101562
ell 500, elapsed: 0.0004138946533203125
ell 499, elapsed: 0.0004930496215820312
ell 498, elapsed: 0.00041794776916503906
ell 497, elapsed: 0.0005021095275878906
ell 496, elapsed: 0.00041604042053222656
ell 495, elapsed: 0.0005180835723876953
ell 494, elapsed: 0.0005099773406982422
ell 493, elapsed: 0.0005090236663818359
ell 492, elapsed: 0.0004150867462158203
ell 491, elapsed: 0.0005009174346923828
ell 490, elapsed: 0.0004150867462158203
ell 489, elapsed: 0.0004987716674804688
ell 488, elapsed: 0.0004220008850097656
ell 487, elapsed: 0.0005002021789550781
ell 486, elapsed: 0.0005049705505371094
ell 485, elapsed: 0.0005021095275878906
ell 484, elapsed: 0.0004200935363769531
ell 483, elapsed: 0.0004951953887939453
ell 482, elapsed: 0.00041985511779785156
ell 481, elapsed: 0.0005002021789550781
ell 480, elapsed: 0.0004191398620605469
ell 479, elapsed: 0.0004980564117431641
ell 478, elapsed: 0.0005059242248535156
ell 477, elapsed: 0.0004999637603759766
ell 476, elapsed: 0.00041794776916503906
ell 475, elapsed: 0.0004940032958984375
ell 474, elapsed: 0.00041794776916503906
ell 473, elapsed: 0.0004980564117431641
ell 472, elapsed: 0.00041604042053222656
ell 471, elapsed: 0.0006830692291259766
ell 470, elapsed: 0.0006189346313476562
ell 469, elapsed: 0.0005068778991699219
ell 468, elapsed: 0.0004169940948486328
ell 467, elapsed: 0.0004971027374267578
ell 466, elapsed: 0.0004200935363769531
ell 465, elapsed: 0.0005009174346923828
ell 464, elapsed: 0.0004248619079589844
ell 463, elapsed: 0.0004990100860595703
ell 462, elapsed: 0.0006399154663085938
ell 461, elapsed: 0.00061798095703125
ell 460, elapsed: 0.0004169940948486328
ell 459, elapsed: 0.0007081031799316406
ell 458, elapsed: 0.0005068778991699219
ell 457, elapsed: 0.0004949569702148438
ell 456, elapsed: 0.0005071163177490234
ell 455, elapsed: 0.0005078315734863281
ell 454, elapsed: 0.00041604042053222656
ell 453, elapsed: 0.0004940032958984375
ell 452, elapsed: 0.0005719661712646484
ell 451, elapsed: 0.0006780624389648438
ell 450, elapsed: 0.0004169940948486328
ell 449, elapsed: 0.0004980564117431641
ell 448, elapsed: 0.0005600452423095703
ell 447, elapsed: 0.00051116943359375
ell 446, elapsed: 0.0004241466522216797
ell 445, elapsed: 0.0005040168762207031
ell 444, elapsed: 0.0004200935363769531
ell 443, elapsed: 0.0004911422729492188
ell 442, elapsed: 0.0004999637603759766
ell 441, elapsed: 0.0008859634399414062
ell 440, elapsed: 0.00043392181396484375
ell 439, elapsed: 0.0005018711090087891
ell 438, elapsed: 0.0004189014434814453
ell 437, elapsed: 0.0004968643188476562
ell 436, elapsed: 0.0004200935363769531
ell 435, elapsed: 0.0004971027374267578
ell 434, elapsed: 0.00041604042053222656
ell 433, elapsed: 0.0005910396575927734
ell 432, elapsed: 0.00040793418884277344
ell 431, elapsed: 0.0007030963897705078
ell 430, elapsed: 0.0004620552062988281
ell 429, elapsed: 0.0004987716674804688
ell 428, elapsed: 0.0004189014434814453
ell 427, elapsed: 0.0004949569702148438
ell 426, elapsed: 0.0005180835723876953
ell 425, elapsed: 0.0005099773406982422
ell 424, elapsed: 0.0005738735198974609
ell 423, elapsed: 0.0007050037384033203
ell 422, elapsed: 0.0004189014434814453
ell 421, elapsed: 0.0004987716674804688
ell 420, elapsed: 0.0006430149078369141
ell 419, elapsed: 0.0006840229034423828
ell 418, elapsed: 0.00041985511779785156
ell 417, elapsed: 0.0005009174346923828
ell 416, elapsed: 0.0004200935363769531
ell 415, elapsed: 0.0005021095275878906
ell 414, elapsed: 0.0004191398620605469
ell 413, elapsed: 0.0004990100860595703
ell 412, elapsed: 0.0004191398620605469
ell 411, elapsed: 0.0005180835723876953
ell 410, elapsed: 0.0004169940948486328
ell 409, elapsed: 0.00049591064453125
ell 408, elapsed: 0.00041484832763671875
ell 407, elapsed: 0.00049591064453125
ell 406, elapsed: 0.0004200935363769531
ell 405, elapsed: 0.0005018711090087891
ell 404, elapsed: 0.00041794776916503906
ell 403, elapsed: 0.000518798828125
ell 402, elapsed: 0.0004181861877441406
ell 401, elapsed: 0.0005037784576416016
ell 400, elapsed: 0.0004189014434814453
ell 399, elapsed: 0.0004999637603759766
ell 398, elapsed: 0.00041413307189941406
ell 397, elapsed: 0.0005009174346923828
ell 396, elapsed: 0.00041794776916503906
ell 395, elapsed: 0.0005669593811035156
ell 394, elapsed: 0.00041985511779785156
ell 393, elapsed: 0.0005009174346923828
ell 392, elapsed: 0.0004229545593261719
ell 391, elapsed: 0.0005040168762207031
ell 390, elapsed: 0.0004138946533203125
ell 389, elapsed: 0.0004980564117431641
ell 388, elapsed: 0.00041604042053222656
ell 387, elapsed: 0.0005199909210205078
ell 386, elapsed: 0.00041413307189941406
ell 385, elapsed: 0.0004980564117431641
ell 384, elapsed: 0.0004150867462158203
ell 383, elapsed: 0.0004999637603759766
ell 382, elapsed: 0.0004169940948486328
ell 381, elapsed: 0.0005049705505371094
ell 380, elapsed: 0.0004818439483642578
ell 379, elapsed: 0.0010509490966796875
ell 378, elapsed: 0.0006780624389648438
ell 377, elapsed: 0.0005950927734375
ell 376, elapsed: 0.0004830360412597656
ell 375, elapsed: 0.0005199909210205078
ell 374, elapsed: 0.00043702125549316406
ell 373, elapsed: 0.0005009174346923828
ell 372, elapsed: 0.0004189014434814453
ell 371, elapsed: 0.0005049705505371094
ell 370, elapsed: 0.0004830360412597656
ell 369, elapsed: 0.0006799697875976562
ell 368, elapsed: 0.00041985511779785156
ell 367, elapsed: 0.0005009174346923828
ell 366, elapsed: 0.0004639625549316406
ell 365, elapsed: 0.0005049705505371094
ell 364, elapsed: 0.00041794776916503906
ell 363, elapsed: 0.0004999637603759766
ell 362, elapsed: 0.0004229545593261719
ell 361, elapsed: 0.0005009174346923828
ell 360, elapsed: 0.0004189014434814453
ell 359, elapsed: 0.0005040168762207031
ell 358, elapsed: 0.0004298686981201172
ell 357, elapsed: 0.0004999637603759766
ell 356, elapsed: 0.00041985511779785156
ell 355, elapsed: 0.0004990100860595703
ell 354, elapsed: 0.0004248619079589844
ell 353, elapsed: 0.0005099773406982422
ell 352, elapsed: 0.000415802001953125
ell 351, elapsed: 0.00049591064453125
ell 350, elapsed: 0.00042891502380371094
ell 349, elapsed: 0.0005009174346923828
ell 348, elapsed: 0.0004229545593261719
ell 347, elapsed: 0.0004940032958984375
ell 346, elapsed: 0.0004210472106933594
ell 345, elapsed: 0.00048804283142089844
ell 344, elapsed: 0.0004169940948486328
ell 343, elapsed: 0.00049591064453125
ell 342, elapsed: 0.00043010711669921875
ell 341, elapsed: 0.0004961490631103516
ell 340, elapsed: 0.00041985511779785156
ell 339, elapsed: 0.0004930496215820312
ell 338, elapsed: 0.0004208087921142578
ell 337, elapsed: 0.0004928112030029297
ell 336, elapsed: 0.0004200935363769531
ell 335, elapsed: 0.0006201267242431641
ell 334, elapsed: 0.0005240440368652344
ell 333, elapsed: 0.0004961490631103516
ell 332, elapsed: 0.0004181861877441406
ell 331, elapsed: 0.000492095947265625
ell 330, elapsed: 0.0004181861877441406
ell 329, elapsed: 0.0004980564117431641
ell 328, elapsed: 0.0004191398620605469
ell 327, elapsed: 0.0004949569702148438
ell 326, elapsed: 0.0004279613494873047
ell 325, elapsed: 0.0004951953887939453
ell 324, elapsed: 0.00041794776916503906
ell 323, elapsed: 0.0005040168762207031
ell 322, elapsed: 0.0004191398620605469
ell 321, elapsed: 0.0005021095275878906
ell 320, elapsed: 0.0004189014434814453
ell 319, elapsed: 0.0005009174346923828
ell 318, elapsed: 0.0004630088806152344
ell 317, elapsed: 0.0005049705505371094
ell 316, elapsed: 0.0004229545593261719
ell 315, elapsed: 0.0004990100860595703
ell 314, elapsed: 0.00041604042053222656
ell 313, elapsed: 0.0004889965057373047
ell 312, elapsed: 0.0004191398620605469
ell 311, elapsed: 0.0005021095275878906
ell 310, elapsed: 0.0004200935363769531
ell 309, elapsed: 0.0005099773406982422
ell 308, elapsed: 0.00041985511779785156
ell 307, elapsed: 0.0004961490631103516
ell 306, elapsed: 0.0004181861877441406
ell 305, elapsed: 0.0005011558532714844
ell 304, elapsed: 0.0004241466522216797
ell 303, elapsed: 0.0004909038543701172
ell 302, elapsed: 0.0004169940948486328
ell 301, elapsed: 0.0005121231079101562
ell 300, elapsed: 0.0004169940948486328
ell 299, elapsed: 0.0004949569702148438
ell 298, elapsed: 0.0004298686981201172
ell 297, elapsed: 0.0004990100860595703
ell 296, elapsed: 0.0004169940948486328
ell 295, elapsed: 0.0004999637603759766
ell 294, elapsed: 0.0004210472106933594
ell 293, elapsed: 0.00051116943359375
ell 292, elapsed: 0.0004200935363769531
ell 291, elapsed: 0.0005028247833251953
ell 290, elapsed: 0.00042319297790527344
ell 289, elapsed: 0.0004961490631103516
ell 288, elapsed: 0.00041985511779785156
ell 287, elapsed: 0.0004999637603759766
ell 286, elapsed: 0.00041985511779785156
ell 285, elapsed: 0.0005140304565429688
ell 284, elapsed: 0.00042510032653808594
ell 283, elapsed: 0.0005002021789550781
ell 282, elapsed: 0.0004191398620605469
ell 281, elapsed: 0.0004930496215820312
ell 280, elapsed: 0.00041985511779785156
ell 279, elapsed: 0.0004949569702148438
ell 278, elapsed: 0.00041484832763671875
ell 277, elapsed: 0.000514984130859375
ell 276, elapsed: 0.00041794776916503906
ell 275, elapsed: 0.00049591064453125
ell 274, elapsed: 0.0004169940948486328
ell 273, elapsed: 0.0004980564117431641
ell 272, elapsed: 0.0004248619079589844
ell 271, elapsed: 0.0004949569702148438
ell 270, elapsed: 0.00041794776916503906
ell 269, elapsed: 0.0005130767822265625
ell 268, elapsed: 0.00041985511779785156
ell 267, elapsed: 0.0005071163177490234
ell 266, elapsed: 0.00041794776916503906
ell 265, elapsed: 0.0005030632019042969
ell 264, elapsed: 0.0004210472106933594
ell 263, elapsed: 0.0005040168762207031
ell 262, elapsed: 0.0004229545593261719
ell 261, elapsed: 0.0006198883056640625
ell 260, elapsed: 0.0004239082336425781
ell 259, elapsed: 0.0005140304565429688
ell 258, elapsed: 0.0004189014434814453
ell 257, elapsed: 0.0005080699920654297
ell 256, elapsed: 0.0004220008850097656
ell 255, elapsed: 0.0005049705505371094
ell 254, elapsed: 0.0004210472106933594
ell 253, elapsed: 0.0006270408630371094
ell 252, elapsed: 0.0004220008850097656
ell 251, elapsed: 0.0005130767822265625
ell 250, elapsed: 0.0004189014434814453
ell 249, elapsed: 0.0005009174346923828
ell 248, elapsed: 0.0004220008850097656
ell 247, elapsed: 0.0005078315734863281
ell 246, elapsed: 0.0004229545593261719
ell 245, elapsed: 0.0005710124969482422
ell 244, elapsed: 0.00042891502380371094
ell 243, elapsed: 0.0005059242248535156
ell 242, elapsed: 0.000415802001953125
ell 241, elapsed: 0.0004990100860595703
ell 240, elapsed: 0.00041604042053222656
ell 239, elapsed: 0.0004930496215820312
ell 238, elapsed: 0.0004200935363769531
ell 237, elapsed: 0.0005161762237548828
ell 236, elapsed: 0.0004210472106933594
ell 235, elapsed: 0.00049591064453125
ell 234, elapsed: 0.0004191398620605469
ell 233, elapsed: 0.0005030632019042969
ell 232, elapsed: 0.0004210472106933594
ell 231, elapsed: 0.0005021095275878906
ell 230, elapsed: 0.0004260540008544922
ell 229, elapsed: 0.0005221366882324219
ell 228, elapsed: 0.0004260540008544922
ell 227, elapsed: 0.0004980564117431641
ell 226, elapsed: 0.00042700767517089844
ell 225, elapsed: 0.0006699562072753906
ell 224, elapsed: 0.0006389617919921875
ell 223, elapsed: 0.0005180835723876953
ell 222, elapsed: 0.0004329681396484375
ell 221, elapsed: 0.0005021095275878906
ell 220, elapsed: 0.0004181861877441406
ell 219, elapsed: 0.0005030632019042969
ell 218, elapsed: 0.0004200935363769531
ell 217, elapsed: 0.0004949569702148438
ell 216, elapsed: 0.0004189014434814453
ell 215, elapsed: 0.0005080699920654297
ell 214, elapsed: 0.0004191398620605469
ell 213, elapsed: 0.0004961490631103516
ell 212, elapsed: 0.00042700767517089844
ell 211, elapsed: 0.0004949569702148438
ell 210, elapsed: 0.0004210472106933594
ell 209, elapsed: 0.0004940032958984375
ell 208, elapsed: 0.0004169940948486328
ell 207, elapsed: 0.00049591064453125
ell 206, elapsed: 0.0004279613494873047
ell 205, elapsed: 0.0006308555603027344
ell 204, elapsed: 0.0005979537963867188
ell 203, elapsed: 0.0007030963897705078
ell 202, elapsed: 0.0005970001220703125
ell 201, elapsed: 0.0007050037384033203
ell 200, elapsed: 0.0006670951843261719
ell 199, elapsed: 0.0007231235504150391
ell 198, elapsed: 0.0006079673767089844
ell 197, elapsed: 0.0007030963897705078
ell 196, elapsed: 0.0005309581756591797
ell 195, elapsed: 0.0006589889526367188
ell 194, elapsed: 0.0006589889526367188
ell 193, elapsed: 0.0007338523864746094
ell 192, elapsed: 0.0006239414215087891
ell 191, elapsed: 0.0007259845733642578
ell 190, elapsed: 0.0006048679351806641
ell 189, elapsed: 0.0007240772247314453
ell 188, elapsed: 0.0006189346313476562
ell 187, elapsed: 0.0007171630859375
ell 186, elapsed: 0.0005998611450195312
ell 185, elapsed: 0.0006968975067138672
ell 184, elapsed: 0.0005998611450195312
ell 183, elapsed: 0.0007319450378417969
ell 182, elapsed: 0.0006110668182373047
ell 181, elapsed: 0.0006749629974365234
ell 180, elapsed: 0.0006120204925537109
ell 179, elapsed: 0.0007188320159912109
ell 178, elapsed: 0.0006279945373535156
ell 177, elapsed: 0.0007431507110595703
ell 176, elapsed: 0.0006079673767089844
ell 175, elapsed: 0.0006949901580810547
ell 174, elapsed: 0.0006008148193359375
ell 173, elapsed: 0.0007219314575195312
ell 172, elapsed: 0.0006139278411865234
ell 171, elapsed: 0.0007269382476806641
ell 170, elapsed: 0.0005309581756591797
ell 169, elapsed: 0.001004934310913086
ell 168, elapsed: 0.0004918575286865234
ell 167, elapsed: 0.0003650188446044922
ell 166, elapsed: 0.00029277801513671875
ell 165, elapsed: 0.00034999847412109375
ell 164, elapsed: 0.0005199909210205078
ell 163, elapsed: 0.0005710124969482422
ell 162, elapsed: 0.0003180503845214844
ell 161, elapsed: 0.0003669261932373047
ell 160, elapsed: 0.0003001689910888672
ell 159, elapsed: 0.0003590583801269531
ell 158, elapsed: 0.0005190372467041016
ell 157, elapsed: 0.0007219314575195312
ell 156, elapsed: 0.0006380081176757812
ell 155, elapsed: 0.0007009506225585938
ell 154, elapsed: 0.0006070137023925781
ell 153, elapsed: 0.0007197856903076172
ell 152, elapsed: 0.0006129741668701172
ell 151, elapsed: 0.0007169246673583984
ell 150, elapsed: 0.0005199909210205078
ell 149, elapsed: 0.0006601810455322266
ell 148, elapsed: 0.0006051063537597656
ell 147, elapsed: 0.0006470680236816406
ell 146, elapsed: 0.0003840923309326172
ell 145, elapsed: 0.0003559589385986328
ell 144, elapsed: 0.00047707557678222656
ell 143, elapsed: 0.0005769729614257812
ell 142, elapsed: 0.00032711029052734375
ell 141, elapsed: 0.0003819465637207031
ell 140, elapsed: 0.0003349781036376953
ell 139, elapsed: 0.00038123130798339844
ell 138, elapsed: 0.0003039836883544922
ell 137, elapsed: 0.0003628730773925781
ell 136, elapsed: 0.0005040168762207031
ell 135, elapsed: 0.0005521774291992188
ell 134, elapsed: 0.0003249645233154297
ell 133, elapsed: 0.0003790855407714844
ell 132, elapsed: 0.00031304359436035156
ell 131, elapsed: 0.00037789344787597656
ell 130, elapsed: 0.0003039836883544922
ell 129, elapsed: 0.0003540515899658203
ell 128, elapsed: 0.0002830028533935547
ell 127, elapsed: 0.0004661083221435547
ell 126, elapsed: 0.0004711151123046875
ell 125, elapsed: 0.0005571842193603516
ell 124, elapsed: 0.0005421638488769531
ell 123, elapsed: 0.0005340576171875
ell 122, elapsed: 0.0002930164337158203
ell 121, elapsed: 0.00034499168395996094
ell 120, elapsed: 0.00028705596923828125
ell 119, elapsed: 0.0005538463592529297
ell 118, elapsed: 0.000453948974609375
ell 117, elapsed: 0.00038504600524902344
ell 116, elapsed: 0.0003170967102050781
ell 115, elapsed: 0.00035500526428222656
ell 114, elapsed: 0.00028896331787109375
ell 113, elapsed: 0.0003528594970703125
ell 112, elapsed: 0.0002880096435546875
ell 111, elapsed: 0.0003418922424316406
ell 110, elapsed: 0.0002899169921875
ell 109, elapsed: 0.0003459453582763672
ell 108, elapsed: 0.0002880096435546875
ell 107, elapsed: 0.0003440380096435547
ell 106, elapsed: 0.00028896331787109375
ell 105, elapsed: 0.00034618377685546875
ell 104, elapsed: 0.00039887428283691406
ell 103, elapsed: 0.0005028247833251953
ell 102, elapsed: 0.0002999305725097656
ell 101, elapsed: 0.0003600120544433594
ell 100, elapsed: 0.0002911090850830078
ell 99, elapsed: 0.0003428459167480469
ell 98, elapsed: 0.0002880096435546875
ell 97, elapsed: 0.0003459453582763672
ell 96, elapsed: 0.00029015541076660156
ell 95, elapsed: 0.00034499168395996094
ell 94, elapsed: 0.0002899169921875
ell 93, elapsed: 0.00037288665771484375
ell 92, elapsed: 0.0002980232238769531
ell 91, elapsed: 0.00035190582275390625
ell 90, elapsed: 0.0002970695495605469
ell 89, elapsed: 0.00034689903259277344
ell 88, elapsed: 0.00029397010803222656
ell 87, elapsed: 0.0003521442413330078
ell 86, elapsed: 0.0002951622009277344
ell 85, elapsed: 0.00034999847412109375
ell 84, elapsed: 0.0002949237823486328
ell 83, elapsed: 0.0003509521484375
ell 82, elapsed: 0.0002930164337158203
ell 81, elapsed: 0.00036597251892089844
ell 80, elapsed: 0.00029397010803222656
ell 79, elapsed: 0.00034809112548828125
ell 78, elapsed: 0.00029397010803222656
ell 77, elapsed: 0.0003509521484375
ell 76, elapsed: 0.00029277801513671875
ell 75, elapsed: 0.0003509521484375
ell 74, elapsed: 0.0002949237823486328
ell 73, elapsed: 0.00035500526428222656
ell 72, elapsed: 0.0002980232238769531
ell 71, elapsed: 0.00037097930908203125
ell 70, elapsed: 0.00033593177795410156
ell 69, elapsed: 0.0003731250762939453
ell 68, elapsed: 0.00031113624572753906
ell 67, elapsed: 0.00036907196044921875
ell 66, elapsed: 0.0003070831298828125
ell 65, elapsed: 0.000453948974609375
ell 64, elapsed: 0.0003829002380371094
ell 63, elapsed: 0.00045800209045410156
ell 62, elapsed: 0.0003910064697265625
ell 61, elapsed: 0.0004799365997314453
ell 60, elapsed: 0.00039196014404296875
ell 59, elapsed: 0.00047016143798828125
ell 58, elapsed: 0.0003809928894042969
ell 57, elapsed: 0.0004570484161376953
ell 56, elapsed: 0.000392913818359375
ell 55, elapsed: 0.00045299530029296875
ell 54, elapsed: 0.00036406517028808594
ell 53, elapsed: 0.00046515464782714844
ell 52, elapsed: 0.0003991127014160156
ell 51, elapsed: 0.00045800209045410156
ell 50, elapsed: 0.0003809928894042969
ell 49, elapsed: 0.00046515464782714844
ell 48, elapsed: 0.0003750324249267578
ell 47, elapsed: 0.0004639625549316406
ell 46, elapsed: 0.0003819465637207031
ell 45, elapsed: 0.00045108795166015625
ell 44, elapsed: 0.0004949569702148438
ell 43, elapsed: 0.0005609989166259766
ell 42, elapsed: 0.0003058910369873047
ell 41, elapsed: 0.00036716461181640625
ell 40, elapsed: 0.0003139972686767578
ell 39, elapsed: 0.00045609474182128906
ell 38, elapsed: 0.00037980079650878906
ell 37, elapsed: 0.00046706199645996094
ell 36, elapsed: 0.00038504600524902344
ell 35, elapsed: 0.00046515464782714844
ell 34, elapsed: 0.0003960132598876953
ell 33, elapsed: 0.00047016143798828125
ell 32, elapsed: 0.0004601478576660156
ell 31, elapsed: 0.0005021095275878906
ell 30, elapsed: 0.0003159046173095703
ell 29, elapsed: 0.00036907196044921875
ell 28, elapsed: 0.0003077983856201172
ell 27, elapsed: 0.0003650188446044922
ell 26, elapsed: 0.00030612945556640625
ell 25, elapsed: 0.0003578662872314453
ell 24, elapsed: 0.0004429817199707031
ell 23, elapsed: 0.0004930496215820312
ell 22, elapsed: 0.00030612945556640625
ell 21, elapsed: 0.0003561973571777344
ell 20, elapsed: 0.00029087066650390625
ell 19, elapsed: 0.00034689903259277344
ell 18, elapsed: 0.00028896331787109375
ell 17, elapsed: 0.0003490447998046875
ell 16, elapsed: 0.0002911090850830078
ell 15, elapsed: 0.00034809112548828125
ell 14, elapsed: 0.0002899169921875
ell 13, elapsed: 0.0003521442413330078
ell 12, elapsed: 0.00029206275939941406
ell 11, elapsed: 0.0003490447998046875
ell 10, elapsed: 0.0002918243408203125
ell 9, elapsed: 0.0003509521484375
ell 8, elapsed: 0.00029206275939941406
ell 7, elapsed: 0.0003478527069091797
ell 6, elapsed: 0.0002911090850830078
ell 5, elapsed: 0.00034689903259277344
ell 4, elapsed: 0.00029206275939941406
ell 3, elapsed: 0.00034689903259277344
ell 2, elapsed: 0.000308990478515625
ell 1, elapsed: 0.0003521442413330078
ell 0, elapsed: 0.00029397010803222656
  0.652315 seconds (41.19 k allocations: 2.939 MiB)
elapsed: 0.0004401206970214844
step:          0.069031 sec (0 allocations: 0 byte, 0.0% gc time)
swapping:      0.000777 sec (0 allocations: 0 byte, 0.0% gc time)
calc_Mellell!: 0.011667 sec (0 allocations: 0 byte, 0.0% gc time)
  t0 :  0.002391 sec (0 allocations: 0 byte, 0.0% gc time)
  tm2 : 0.10545 sec (0 allocations: 0 byte, 0.0% gc time)
  tm2s: 0.001986 sec (0 allocations: 0 byte, 0.0% gc time)
  tm4 : 0.268361 sec (0 allocations: 0 byte, 0.0% gc time)
  tp2 : 0.0 sec (0 allocations: 0 byte, 0.0% gc time)
  tp2s: 0.0 sec (0 allocations: 0 byte, 0.0% gc time)
  tp4 : 0.0 sec (0 allocations: 0 byte, 0.0% gc time)
calc_wtdll!:   0.396018 sec (9.87 k allocations: 1.043 MB, 0.0% gc time)
calc_wljj!:    0.04048 sec (689 allocations: 10.766 KB, 0.0% gc time)
mult_prefac!:  0.0 sec (0 allocations: 0 byte, 0.0% gc time)
convert:       0.0 sec (0 allocations: 0 byte, 0.0% gc time)
write:         0.056178 sec (0 allocations: 0 byte, 0.0% gc time)
test_rand_2f1: 0.0 sec (0 allocations: 0 byte, 0.0% gc time)
Closing outfile out/Ml21-cache.bin...   0.020686 seconds
  0.001138 seconds (52 allocations: 28.297 KiB)
make_phi():   0.003351 seconds (8.20 k allocations: 238.016 KiB)
  0.283873 seconds (146.69 k allocations: 3.629 MiB)
tskip:       0.001851 sec (0 allocations: 0 byte, 0.0% gc time)
tread:       0.032265 sec (19 allocations: 10.688 KB, 0.0% gc time)
tmultphi:    0.020926 sec (0 allocations: 0 byte, 0.0% gc time)
tbrfft:      0.067117 sec (9.592 k allocations: 449.625 KB, 0.0% gc time)
tmultprefac: 0.059387 sec (0 allocations: 0 byte, 0.0% gc time)
toutfunc:    0.099692 sec (129.905 k allocations: 2.421 MB, 0.0% gc time)
Testing R=1.0 ... passed
Calculating fmax: 
  dlrec    = 4
  dlrecRg1 = -4
  q=1.1, R=0.9:	  0.532168 seconds (116.47 k allocations: 15.614 MiB, 3.33% gc time)

  0.532475 seconds (116.51 k allocations: 15.648 MiB, 3.33% gc time)
ℓ = 1202
Δℓ = 4
ΔℓRg1 = -4
N = 1600
q = 1.1
kmin = 1.0e-5
kmax = 100000.00000000004
χ0 = 0.023029999999999995
RR = RR.tsv
ℓmax = ℓmax.bin
f21 = f21.bin
kmin = 1.0e-5
kmax = 100000.0
dlrec    = 4
dlrecRg1 = -4
Output size: 5741568 bytes = 0.005347251892089844 GiB
Output size: 51264 bytes = 4.774332046508789e-5 GiB
Reading 'out/F21EllCache'...   0.001238 seconds (267 allocations: 84.656 KiB)
ellmax: 1202
lmaxcache: 1202
fell[:,1,1] = Complex{Float64}[1.3482014726274674e-57 - 3.302141236118086e-73im, 1.357860004724329e-57 - 3.3257978169518355e-73im]
ell 1202, elapsed: 0.00017499923706054688
ell 1201, elapsed: 0.0006330013275146484
ell 1200, elapsed: 0.0005879402160644531
ell 1199, elapsed: 0.0005879402160644531
ell 1198, elapsed: 0.0005810260772705078
ell 1002, elapsed: 0.011581897735595703
ell 1001, elapsed: 0.000576019287109375
ell 1000, elapsed: 0.0005581378936767578
ell 999, elapsed: 0.0005609989166259766
ell 998, elapsed: 0.0005631446838378906
ell 902, elapsed: 0.006527900695800781
ell 901, elapsed: 0.0005970001220703125
ell 900, elapsed: 0.0005578994750976562
ell 899, elapsed: 0.0005538463592529297
ell 898, elapsed: 0.0005490779876708984
ell 802, elapsed: 0.00675511360168457
ell 801, elapsed: 0.0005350112915039062
ell 800, elapsed: 0.000553131103515625
ell 799, elapsed: 0.0006310939788818359
ell 798, elapsed: 0.0006110668182373047
ell 702, elapsed: 0.0065920352935791016
ell 701, elapsed: 0.0006029605865478516
ell 700, elapsed: 0.0006029605865478516
ell 699, elapsed: 0.0006091594696044922
ell 698, elapsed: 0.0005888938903808594
ell 602, elapsed: 0.006981849670410156
ell 601, elapsed: 0.0005168914794921875
ell 600, elapsed: 0.0004911422729492188
ell 599, elapsed: 0.0004901885986328125
ell 598, elapsed: 0.00046706199645996094
ell 502, elapsed: 0.006384134292602539
ell 501, elapsed: 0.00045800209045410156
ell 500, elapsed: 0.00045013427734375
ell 499, elapsed: 0.0004928112030029297
ell 498, elapsed: 0.0004968643188476562
ell 402, elapsed: 0.006470203399658203
ell 401, elapsed: 0.00045800209045410156
ell 400, elapsed: 0.0004620552062988281
ell 399, elapsed: 0.0004220008850097656
ell 398, elapsed: 0.0006160736083984375
ell 302, elapsed: 0.00637507438659668
ell 301, elapsed: 0.0004749298095703125
ell 300, elapsed: 0.0004680156707763672
ell 299, elapsed: 0.00043010711669921875
ell 298, elapsed: 0.0004239082336425781
ell 202, elapsed: 0.006410121917724609
ell 201, elapsed: 0.00043392181396484375
ell 200, elapsed: 0.00043392181396484375
ell 199, elapsed: 0.0004241466522216797
ell 198, elapsed: 0.0004229545593261719
ell 152, elapsed: 0.0027990341186523438
ell 151, elapsed: 0.00032901763916015625
ell 150, elapsed: 0.0004360675811767578
ell 149, elapsed: 0.0004360675811767578
ell 148, elapsed: 0.0004360675811767578
ell 127, elapsed: 0.0018589496612548828
ell 126, elapsed: 0.0004317760467529297
ell 125, elapsed: 0.00043201446533203125
ell 124, elapsed: 0.00043201446533203125
ell 123, elapsed: 0.00043320655822753906
ell 114, elapsed: 0.0009608268737792969
ell 113, elapsed: 0.00044083595275878906
ell 112, elapsed: 0.00042891502380371094
ell 111, elapsed: 0.00043082237243652344
ell 110, elapsed: 0.00043201446533203125
ell 102, elapsed: 0.0010268688201904297
ell 101, elapsed: 0.00043201446533203125
ell 100, elapsed: 0.00043082237243652344
ell 99, elapsed: 0.00043892860412597656
ell 98, elapsed: 0.0004341602325439453
ell 97, elapsed: 0.00045800209045410156
ell 96, elapsed: 0.0005838871002197266
ell 95, elapsed: 0.0004730224609375
ell 94, elapsed: 0.0006279945373535156
ell 93, elapsed: 0.0005447864532470703
ell 92, elapsed: 0.0006639957427978516
ell 91, elapsed: 0.0005300045013427734
ell 90, elapsed: 0.0007398128509521484
ell 89, elapsed: 0.0006198883056640625
ell 88, elapsed: 0.0007300376892089844
ell 87, elapsed: 0.0006570816040039062
ell 86, elapsed: 0.0006449222564697266
ell 85, elapsed: 0.0006289482116699219
ell 84, elapsed: 0.0007448196411132812
ell 83, elapsed: 0.0005359649658203125
ell 82, elapsed: 0.0006811618804931641
ell 81, elapsed: 0.0006978511810302734
ell 80, elapsed: 0.0006971359252929688
ell 79, elapsed: 0.0005738735198974609
ell 78, elapsed: 0.0006699562072753906
ell 77, elapsed: 0.0004968643188476562
ell 76, elapsed: 0.0005929470062255859
ell 75, elapsed: 0.00044083595275878906
ell 74, elapsed: 0.00037097930908203125
ell 73, elapsed: 0.0002961158752441406
ell 72, elapsed: 0.00035500526428222656
ell 71, elapsed: 0.00029397010803222656
ell 70, elapsed: 0.0003490447998046875
ell 69, elapsed: 0.000308990478515625
ell 68, elapsed: 0.0003559589385986328
ell 67, elapsed: 0.00030684471130371094
ell 66, elapsed: 0.00035190582275390625
ell 65, elapsed: 0.00029397010803222656
ell 64, elapsed: 0.00035500526428222656
ell 63, elapsed: 0.0002942085266113281
ell 62, elapsed: 0.00035309791564941406
ell 61, elapsed: 0.0002970695495605469
ell 60, elapsed: 0.00035500526428222656
ell 59, elapsed: 0.00029397010803222656
ell 58, elapsed: 0.0003650188446044922
ell 57, elapsed: 0.00029397010803222656
ell 56, elapsed: 0.00034999847412109375
ell 55, elapsed: 0.0002970695495605469
ell 54, elapsed: 0.0003540515899658203
ell 53, elapsed: 0.00029206275939941406
ell 52, elapsed: 0.0003581047058105469
ell 51, elapsed: 0.00029206275939941406
ell 50, elapsed: 0.0003528594970703125
ell 49, elapsed: 0.0002930164337158203
ell 48, elapsed: 0.00035881996154785156
ell 47, elapsed: 0.0002949237823486328
ell 46, elapsed: 0.0003559589385986328
ell 45, elapsed: 0.00029397010803222656
ell 44, elapsed: 0.0003650188446044922
ell 43, elapsed: 0.0002930164337158203
ell 42, elapsed: 0.0003571510314941406
ell 41, elapsed: 0.0002930164337158203
ell 40, elapsed: 0.0003540515899658203
ell 39, elapsed: 0.0002930164337158203
ell 38, elapsed: 0.0003559589385986328
ell 37, elapsed: 0.00029277801513671875
ell 36, elapsed: 0.00035691261291503906
ell 35, elapsed: 0.0002930164337158203
ell 34, elapsed: 0.0003528594970703125
ell 33, elapsed: 0.0002930164337158203
ell 32, elapsed: 0.0003819465637207031
ell 31, elapsed: 0.00029277801513671875
ell 30, elapsed: 0.0003650188446044922
ell 29, elapsed: 0.00029397010803222656
ell 28, elapsed: 0.0003650188446044922
ell 27, elapsed: 0.00029397010803222656
ell 26, elapsed: 0.0003578662872314453
ell 25, elapsed: 0.0002949237823486328
ell 24, elapsed: 0.0003509521484375
ell 23, elapsed: 0.0002930164337158203
ell 22, elapsed: 0.0003590583801269531
ell 21, elapsed: 0.000308990478515625
ell 20, elapsed: 0.0003628730773925781
ell 19, elapsed: 0.0003008842468261719
ell 18, elapsed: 0.000370025634765625
ell 17, elapsed: 0.0003020763397216797
ell 16, elapsed: 0.0003631114959716797
ell 15, elapsed: 0.00030112266540527344
ell 14, elapsed: 0.0003581047058105469
ell 13, elapsed: 0.00030303001403808594
ell 12, elapsed: 0.0003631114959716797
ell 11, elapsed: 0.0003039836883544922
ell 10, elapsed: 0.00037789344787597656
ell 9, elapsed: 0.0003101825714111328
ell 8, elapsed: 0.0003628730773925781
ell 7, elapsed: 0.0003070831298828125
ell 6, elapsed: 0.0003669261932373047
ell 5, elapsed: 0.00030112266540527344
ell 4, elapsed: 0.0003590583801269531
ell 3, elapsed: 0.0003018379211425781
ell 2, elapsed: 0.00036406517028808594
ell 1, elapsed: 0.00030303001403808594
ell 0, elapsed: 0.00036716461181640625
  0.160803 seconds (10.83 k allocations: 697.938 KiB)
elapsed: 0.00039315223693847656
step:          0.069452 sec (0 allocations: 0 byte, 0.0% gc time)
swapping:      0.00063 sec (0 allocations: 0 byte, 0.0% gc time)
calc_Mellell!: 0.001567 sec (0 allocations: 0 byte, 0.0% gc time)
  t0 :  0.000312 sec (0 allocations: 0 byte, 0.0% gc time)
  tm2 : 0.014339 sec (0 allocations: 0 byte, 0.0% gc time)
  tm2s: 0.000267 sec (0 allocations: 0 byte, 0.0% gc time)
  tm4 : 0.032577 sec (0 allocations: 0 byte, 0.0% gc time)
  tp2 : 0.0 sec (0 allocations: 0 byte, 0.0% gc time)
  tp2s: 0.0 sec (0 allocations: 0 byte, 0.0% gc time)
  tp4 : 1.0e-6 sec (0 allocations: 0 byte, 0.0% gc time)
calc_wtdll!:   0.047991 sec (1.344 k allocations: 147.0 KB, 0.0% gc time)
calc_wljj!:    0.00268 sec (6 allocations: 96 byte, 0.0% gc time)
mult_prefac!:  0.0 sec (0 allocations: 0 byte, 0.0% gc time)
convert:       0.0 sec (0 allocations: 0 byte, 0.0% gc time)
write:         0.004582 sec (0 allocations: 0 byte, 0.0% gc time)
test_rand_2f1: 0.0 sec (0 allocations: 0 byte, 0.0% gc time)
Closing outfile out/Ml21-cache.bin...   0.001999 seconds
  0.000351 seconds (52 allocations: 28.297 KiB)
make_phi():   0.001786 seconds (8.20 k allocations: 238.016 KiB)
  0.015768 seconds (12.10 k allocations: 322.000 KiB)
tskip:       2.1e-5 sec (0 allocations: 0 byte, 0.0% gc time)
tread:       0.018901 sec (19 allocations: 2.172 KB, 0.0% gc time)
tmultphi:    0.001028 sec (0 allocations: 0 byte, 0.0% gc time)
tbrfft:      0.004124 sec (896 allocations: 42.0 KB, 0.0% gc time)
tmultprefac: 0.002857 sec (0 allocations: 0 byte, 0.0% gc time)
toutfunc:    0.005336 sec (10.528 k allocations: 206.5 KB, 0.0% gc time)
Testing R=0.9 ... passed
Calculating fmax: 
  dlrec    = 4
  dlrecRg1 = -4
  q=1.1, R=0.8:	  0.326366 seconds (113.61 k allocations: 15.166 MiB)

  0.326614 seconds (113.65 k allocations: 15.200 MiB)
ℓ = 1202
Δℓ = 4
ΔℓRg1 = -4
N = 1600
q = 1.1
kmin = 1.0e-5
kmax = 100000.00000000004
χ0 = 0.023029999999999995
RR = RR.tsv
ℓmax = ℓmax.bin
f21 = f21.bin
kmin = 1.0e-5
kmax = 100000.0
dlrec    = 4
dlrecRg1 = -4
Output size: 5741568 bytes = 0.005347251892089844 GiB
Output size: 51264 bytes = 4.774332046508789e-5 GiB
Reading 'out/F21EllCache'...   0.011690 seconds (267 allocations: 84.656 KiB)
ellmax: 1202
lmaxcache: 1202
fell[:,1,1] = Complex{Float64}[7.519068145690986e-120 - 1.8416405474382574e-135im, 7.541664537386155e-120 - 1.847175067190611e-135im]
ell 1202, elapsed: 2.5987625122070312e-5
ell 1201, elapsed: 0.0007009506225585938
ell 1200, elapsed: 0.0004889965057373047
ell 1199, elapsed: 0.00041103363037109375
ell 1198, elapsed: 0.00041103363037109375
ell 1002, elapsed: 0.009594917297363281
ell 1001, elapsed: 0.0003840923309326172
ell 1000, elapsed: 0.00036406517028808594
ell 999, elapsed: 0.0003612041473388672
ell 998, elapsed: 0.0003628730773925781
ell 902, elapsed: 0.0049669742584228516
ell 901, elapsed: 0.0003769397735595703
ell 900, elapsed: 0.00035881996154785156
ell 899, elapsed: 0.0003578662872314453
ell 898, elapsed: 0.0003609657287597656
ell 802, elapsed: 0.0050830841064453125
ell 801, elapsed: 0.00037789344787597656
ell 800, elapsed: 0.0003581047058105469
ell 799, elapsed: 0.00043201446533203125
ell 798, elapsed: 0.0003631114959716797
ell 702, elapsed: 0.0048749446868896484
ell 701, elapsed: 0.00036978721618652344
ell 700, elapsed: 0.0003600120544433594
ell 699, elapsed: 0.0003578662872314453
ell 698, elapsed: 0.0003590583801269531
ell 602, elapsed: 0.005173206329345703
ell 601, elapsed: 0.0003750324249267578
ell 600, elapsed: 0.0003609657287597656
ell 599, elapsed: 0.0003628730773925781
ell 598, elapsed: 0.0003578662872314453
ell 502, elapsed: 0.004865169525146484
ell 501, elapsed: 0.0003750324249267578
ell 500, elapsed: 0.0003628730773925781
ell 499, elapsed: 0.0003578662872314453
ell 498, elapsed: 0.00037384033203125
ell 402, elapsed: 0.005014896392822266
ell 401, elapsed: 0.00038313865661621094
ell 400, elapsed: 0.00037097930908203125
ell 399, elapsed: 0.0003638267517089844
ell 398, elapsed: 0.0003609657287597656
ell 302, elapsed: 0.004869222640991211
ell 301, elapsed: 0.0003910064697265625
ell 300, elapsed: 0.0003628730773925781
ell 299, elapsed: 0.0003638267517089844
ell 298, elapsed: 0.0003609657287597656
ell 202, elapsed: 0.005121946334838867
ell 201, elapsed: 0.000370025634765625
ell 200, elapsed: 0.0003609657287597656
ell 199, elapsed: 0.00036215782165527344
ell 198, elapsed: 0.000370025634765625
ell 152, elapsed: 0.0027070045471191406
ell 151, elapsed: 0.00036716461181640625
ell 150, elapsed: 0.00036406517028808594
ell 149, elapsed: 0.0003809928894042969
ell 148, elapsed: 0.00035881996154785156
ell 127, elapsed: 0.001561880111694336
ell 126, elapsed: 0.0003609657287597656
ell 125, elapsed: 0.00036406517028808594
ell 124, elapsed: 0.0003600120544433594
ell 123, elapsed: 0.00036597251892089844
ell 114, elapsed: 0.0008330345153808594
ell 113, elapsed: 0.00036406517028808594
ell 112, elapsed: 0.00035881996154785156
ell 111, elapsed: 0.0003581047058105469
ell 110, elapsed: 0.00035691261291503906
ell 102, elapsed: 0.0008699893951416016
ell 101, elapsed: 0.0003590583801269531
ell 100, elapsed: 0.0003559589385986328
ell 99, elapsed: 0.00037407875061035156
ell 98, elapsed: 0.0003612041473388672
ell 97, elapsed: 0.0004038810729980469
ell 96, elapsed: 0.00047707557678222656
ell 95, elapsed: 0.0004000663757324219
ell 94, elapsed: 0.0004830360412597656
ell 93, elapsed: 0.00039386749267578125
ell 92, elapsed: 0.0004839897155761719
ell 91, elapsed: 0.0003972053527832031
ell 90, elapsed: 0.0005710124969482422
ell 89, elapsed: 0.0003981590270996094
ell 88, elapsed: 0.00046896934509277344
ell 87, elapsed: 0.0004029273986816406
ell 86, elapsed: 0.00046896934509277344
ell 85, elapsed: 0.0003981590270996094
ell 84, elapsed: 0.0004761219024658203
ell 83, elapsed: 0.0003960132598876953
ell 82, elapsed: 0.0005650520324707031
ell 81, elapsed: 0.00039505958557128906
ell 80, elapsed: 0.00047087669372558594
ell 79, elapsed: 0.0003960132598876953
ell 78, elapsed: 0.0004630088806152344
ell 77, elapsed: 0.00039696693420410156
ell 76, elapsed: 0.00047016143798828125
ell 75, elapsed: 0.00039696693420410156
ell 74, elapsed: 0.0004718303680419922
ell 73, elapsed: 0.0004150867462158203
ell 72, elapsed: 0.0004730224609375
ell 71, elapsed: 0.00039696693420410156
ell 70, elapsed: 0.00047397613525390625
ell 69, elapsed: 0.0004000663757324219
ell 68, elapsed: 0.00047707557678222656
ell 67, elapsed: 0.0004010200500488281
ell 66, elapsed: 0.00047278404235839844
ell 65, elapsed: 0.0004189014434814453
ell 64, elapsed: 0.00047707557678222656
ell 63, elapsed: 0.0004010200500488281
ell 62, elapsed: 0.00047206878662109375
ell 61, elapsed: 0.0004019737243652344
ell 60, elapsed: 0.00047707557678222656
ell 59, elapsed: 0.00040602684020996094
ell 58, elapsed: 0.000476837158203125
ell 57, elapsed: 0.0004088878631591797
ell 56, elapsed: 0.0005679130554199219
ell 55, elapsed: 0.0004019737243652344
ell 54, elapsed: 0.0004801750183105469
ell 53, elapsed: 0.00040793418884277344
ell 52, elapsed: 0.0004761219024658203
ell 51, elapsed: 0.0004038810729980469
ell 50, elapsed: 0.0004730224609375
ell 49, elapsed: 0.00039887428283691406
ell 48, elapsed: 0.0004889965057373047
ell 47, elapsed: 0.0003991127014160156
ell 46, elapsed: 0.0004661083221435547
ell 45, elapsed: 0.0004000663757324219
ell 44, elapsed: 0.0004742145538330078
ell 43, elapsed: 0.0004000663757324219
ell 42, elapsed: 0.00047016143798828125
ell 41, elapsed: 0.0004000663757324219
ell 40, elapsed: 0.00046706199645996094
ell 39, elapsed: 0.00041103363037109375
ell 38, elapsed: 0.00047087669372558594
ell 37, elapsed: 0.00039887428283691406
ell 36, elapsed: 0.0004658699035644531
ell 35, elapsed: 0.0004029273986816406
ell 34, elapsed: 0.00047206878662109375
ell 33, elapsed: 0.0004019737243652344
ell 32, elapsed: 0.00047898292541503906
ell 31, elapsed: 0.00041103363037109375
ell 30, elapsed: 0.0004749298095703125
ell 29, elapsed: 0.0004010200500488281
ell 28, elapsed: 0.0004711151123046875
ell 27, elapsed: 0.0003979206085205078
ell 26, elapsed: 0.0004658699035644531
ell 25, elapsed: 0.0003979206085205078
ell 24, elapsed: 0.0004711151123046875
ell 23, elapsed: 0.0004010200500488281
ell 22, elapsed: 0.0004849433898925781
ell 21, elapsed: 0.0004029273986816406
ell 20, elapsed: 0.00047206878662109375
ell 19, elapsed: 0.00040411949157714844
ell 18, elapsed: 0.0004730224609375
ell 17, elapsed: 0.0004010200500488281
[...]
ell 788, elapsed: 0.0008208751678466797
ell 782, elapsed: 0.0016918182373046875
ell 781, elapsed: 0.0007510185241699219
ell 780, elapsed: 0.0008480548858642578
ell 779, elapsed: 0.0007569789886474609
ell 778, elapsed: 0.0008020401000976562
ell 772, elapsed: 0.0015139579772949219
ell 771, elapsed: 0.0008151531219482422
ell 770, elapsed: 0.0008289813995361328
ell 769, elapsed: 0.0008299350738525391
ell 768, elapsed: 0.0008060932159423828
ell 762, elapsed: 0.0015020370483398438
ell 761, elapsed: 0.0007910728454589844
ell 760, elapsed: 0.0008299350738525391
ell 759, elapsed: 0.0008268356323242188
ell 758, elapsed: 0.0007779598236083984
ell 752, elapsed: 0.0015070438385009766
ell 751, elapsed: 0.0007948875427246094
ell 750, elapsed: 0.0008120536804199219
ell 749, elapsed: 0.00078582763671875
ell 748, elapsed: 0.0008020401000976562
ell 742, elapsed: 0.0017249584197998047
ell 741, elapsed: 0.0008192062377929688
ell 740, elapsed: 0.0008170604705810547
ell 739, elapsed: 0.0008249282836914062
ell 738, elapsed: 0.001009225845336914
ell 732, elapsed: 0.001981973648071289
ell 731, elapsed: 0.0009920597076416016
ell 730, elapsed: 0.0010221004486083984
ell 729, elapsed: 0.0009958744049072266
ell 728, elapsed: 0.0009291172027587891
ell 722, elapsed: 0.0018019676208496094
ell 721, elapsed: 0.0009210109710693359
ell 720, elapsed: 0.0009260177612304688
ell 719, elapsed: 0.0009109973907470703
ell 718, elapsed: 0.0009341239929199219
ell 712, elapsed: 0.0019140243530273438
ell 711, elapsed: 0.0008699893951416016
ell 710, elapsed: 0.0009391307830810547
ell 709, elapsed: 0.0009241104125976562
ell 708, elapsed: 0.0009219646453857422
ell 702, elapsed: 0.0019578933715820312
ell 701, elapsed: 0.0008759498596191406
ell 700, elapsed: 0.0009298324584960938
ell 699, elapsed: 0.0009210109710693359
ell 698, elapsed: 0.0009551048278808594
ell 692, elapsed: 0.0017709732055664062
ell 691, elapsed: 0.0011119842529296875
ell 690, elapsed: 0.0011129379272460938
ell 689, elapsed: 0.001085042953491211
ell 688, elapsed: 0.0009679794311523438
ell 682, elapsed: 0.0020132064819335938
ell 681, elapsed: 0.0009310245513916016
ell 680, elapsed: 0.0009720325469970703
ell 679, elapsed: 0.0009920597076416016
ell 678, elapsed: 0.0009219646453857422
ell 672, elapsed: 0.001959085464477539
ell 671, elapsed: 0.0009329319000244141
ell 670, elapsed: 0.0009441375732421875
ell 669, elapsed: 0.0009319782257080078
ell 668, elapsed: 0.0009319782257080078
ell 662, elapsed: 0.0017800331115722656
ell 661, elapsed: 0.0009238719940185547
ell 660, elapsed: 0.0009479522705078125
ell 659, elapsed: 0.0009210109710693359
ell 658, elapsed: 0.0009810924530029297
ell 652, elapsed: 0.0019259452819824219
ell 651, elapsed: 0.0008738040924072266
ell 650, elapsed: 0.0009398460388183594
ell 649, elapsed: 0.0009369850158691406
ell 648, elapsed: 0.0009391307830810547
ell 642, elapsed: 0.0017919540405273438
ell 641, elapsed: 0.0009560585021972656
ell 640, elapsed: 0.0009260177612304688
ell 639, elapsed: 0.0009410381317138672
ell 638, elapsed: 0.0009579658508300781
ell 632, elapsed: 0.0020918846130371094
ell 631, elapsed: 0.0009510517120361328
ell 630, elapsed: 0.0009400844573974609
ell 629, elapsed: 0.0009322166442871094
ell 628, elapsed: 0.0009341239929199219
ell 622, elapsed: 0.0018000602722167969
ell 621, elapsed: 0.0009300708770751953
ell 620, elapsed: 0.0009431838989257812
ell 619, elapsed: 0.000926971435546875
ell 618, elapsed: 0.0009410381317138672
ell 612, elapsed: 0.0017781257629394531
ell 611, elapsed: 0.0009570121765136719
ell 610, elapsed: 0.0009381771087646484
ell 609, elapsed: 0.0009539127349853516
ell 608, elapsed: 0.000946044921875
ell 602, elapsed: 0.001811981201171875
ell 601, elapsed: 0.0009429454803466797
ell 600, elapsed: 0.0009469985961914062
ell 599, elapsed: 0.0009610652923583984
ell 598, elapsed: 0.0009279251098632812
ell 592, elapsed: 0.0017669200897216797
ell 591, elapsed: 0.0010280609130859375
ell 590, elapsed: 0.0009970664978027344
ell 589, elapsed: 0.0010440349578857422
ell 588, elapsed: 0.0010089874267578125
ell 582, elapsed: 0.0018758773803710938
ell 581, elapsed: 0.0010099411010742188
ell 580, elapsed: 0.0011000633239746094
ell 579, elapsed: 0.001074075698852539
ell 578, elapsed: 0.0011949539184570312
ell 572, elapsed: 0.0020248889923095703
ell 571, elapsed: 0.0012369155883789062
ell 570, elapsed: 0.0011150836944580078
ell 569, elapsed: 0.0009560585021972656
ell 568, elapsed: 0.0009508132934570312
ell 562, elapsed: 0.002096891403198242
ell 561, elapsed: 0.0010280609130859375
ell 560, elapsed: 0.001013040542602539
ell 559, elapsed: 0.0010390281677246094
ell 558, elapsed: 0.0010249614715576172
ell 552, elapsed: 0.0018811225891113281
ell 551, elapsed: 0.001155853271484375
ell 550, elapsed: 0.0010349750518798828
ell 549, elapsed: 0.0010519027709960938
ell 548, elapsed: 0.0010159015655517578
ell 542, elapsed: 0.0018830299377441406
ell 541, elapsed: 0.001046895980834961
ell 540, elapsed: 0.0010209083557128906
ell 539, elapsed: 0.0010190010070800781
ell 538, elapsed: 0.0008521080017089844
ell 532, elapsed: 0.0017108917236328125
ell 531, elapsed: 0.0008912086486816406
ell 530, elapsed: 0.0008869171142578125
ell 529, elapsed: 0.0008981227874755859
ell 528, elapsed: 0.0008938312530517578
ell 522, elapsed: 0.0016829967498779297
ell 521, elapsed: 0.0008881092071533203
ell 520, elapsed: 0.0008978843688964844
ell 519, elapsed: 0.0008821487426757812
ell 518, elapsed: 0.000885009765625
ell 512, elapsed: 0.0016880035400390625
ell 511, elapsed: 0.0008859634399414062
ell 510, elapsed: 0.0008840560913085938
ell 509, elapsed: 0.0008897781372070312
ell 508, elapsed: 0.0009129047393798828
ell 502, elapsed: 0.0016739368438720703
ell 501, elapsed: 0.0008780956268310547
ell 500, elapsed: 0.0008971691131591797
ell 499, elapsed: 0.0008790493011474609
ell 498, elapsed: 0.0008950233459472656
ell 492, elapsed: 0.0016770362854003906
ell 491, elapsed: 0.0009050369262695312
ell 490, elapsed: 0.0008869171142578125
ell 489, elapsed: 0.0008869171142578125
ell 488, elapsed: 0.04683685302734375
ell 482, elapsed: 0.0020499229431152344
ell 481, elapsed: 0.0008349418640136719
ell 480, elapsed: 0.0008220672607421875
ell 479, elapsed: 0.0012569427490234375
ell 478, elapsed: 0.0013701915740966797
ell 472, elapsed: 0.0016970634460449219
ell 471, elapsed: 0.0008809566497802734
ell 470, elapsed: 0.0008590221405029297
ell 469, elapsed: 0.0008780956268310547
ell 468, elapsed: 0.0008761882781982422
ell 462, elapsed: 0.0021691322326660156
ell 461, elapsed: 0.0008449554443359375
ell 460, elapsed: 0.0008740425109863281
ell 459, elapsed: 0.0008668899536132812
ell 458, elapsed: 0.0008680820465087891
ell 452, elapsed: 0.00168609619140625
ell 451, elapsed: 0.0008740425109863281
ell 450, elapsed: 0.0008709430694580078
ell 449, elapsed: 0.0008709430694580078
ell 448, elapsed: 0.0008821487426757812
ell 442, elapsed: 0.0016660690307617188
ell 441, elapsed: 0.0008749961853027344
ell 440, elapsed: 0.0008921623229980469
ell 439, elapsed: 0.0008728504180908203
ell 438, elapsed: 0.0008740425109863281
ell 432, elapsed: 0.0016779899597167969
ell 431, elapsed: 0.0008890628814697266
ell 430, elapsed: 0.0008749961853027344
ell 429, elapsed: 0.0008699893951416016
ell 428, elapsed: 0.0008709430694580078
ell 422, elapsed: 0.0016829967498779297
ell 421, elapsed: 0.0008831024169921875
ell 420, elapsed: 0.0008740425109863281
ell 419, elapsed: 0.0008711814880371094
ell 418, elapsed: 0.0008840560913085938
ell 412, elapsed: 0.001664876937866211
ell 411, elapsed: 0.0008709430694580078
ell 410, elapsed: 0.0008878707885742188
ell 409, elapsed: 0.0008749961853027344
ell 408, elapsed: 0.0008800029754638672
ell 402, elapsed: 0.0016849040985107422
ell 401, elapsed: 0.0008938312530517578
ell 400, elapsed: 0.0008831024169921875
ell 399, elapsed: 0.0008778572082519531
ell 398, elapsed: 0.0008800029754638672
ell 392, elapsed: 0.001870870590209961
ell 391, elapsed: 0.0008418560028076172
ell 390, elapsed: 0.0008869171142578125
ell 389, elapsed: 0.0009419918060302734
ell 388, elapsed: 0.0008678436279296875
ell 382, elapsed: 0.0016841888427734375
ell 381, elapsed: 0.0008630752563476562
ell 380, elapsed: 0.0008940696716308594
ell 379, elapsed: 0.0008671283721923828
ell 378, elapsed: 0.0008831024169921875
ell 372, elapsed: 0.0017039775848388672
ell 371, elapsed: 0.001283884048461914
ell 370, elapsed: 0.0012559890747070312
ell 369, elapsed: 0.0008509159088134766
ell 368, elapsed: 0.0009629726409912109
ell 362, elapsed: 0.0019440650939941406
ell 361, elapsed: 0.0008590221405029297
ell 360, elapsed: 0.0008809566497802734
ell 359, elapsed: 0.0011219978332519531
ell 358, elapsed: 0.0008571147918701172
ell 352, elapsed: 0.0017309188842773438
ell 351, elapsed: 0.0008490085601806641
ell 350, elapsed: 0.0008471012115478516
ell 349, elapsed: 0.0008428096771240234
ell 348, elapsed: 0.0008559226989746094
ell 342, elapsed: 0.002221822738647461
ell 341, elapsed: 0.0007929801940917969
ell 340, elapsed: 0.0011157989501953125
ell 339, elapsed: 0.0008280277252197266
ell 338, elapsed: 0.0009169578552246094
ell 332, elapsed: 0.0018010139465332031
ell 331, elapsed: 0.000993967056274414
ell 330, elapsed: 0.0009131431579589844
ell 329, elapsed: 0.0008831024169921875
ell 328, elapsed: 0.0009341239929199219
ell 322, elapsed: 0.0017650127410888672
ell 321, elapsed: 0.0009419918060302734
ell 320, elapsed: 0.0009429454803466797
ell 319, elapsed: 0.0009419918060302734
ell 318, elapsed: 0.0009131431579589844
ell 312, elapsed: 0.00185394287109375
ell 311, elapsed: 0.0008420944213867188
ell 310, elapsed: 0.0008859634399414062
ell 309, elapsed: 0.0008749961853027344
ell 308, elapsed: 0.0008900165557861328
ell 302, elapsed: 0.001672983169555664
ell 301, elapsed: 0.0008981227874755859
ell 300, elapsed: 0.0010020732879638672
ell 299, elapsed: 0.0008988380432128906
ell 298, elapsed: 0.001024007797241211
ell 292, elapsed: 0.0017750263214111328
ell 291, elapsed: 0.0008871555328369141
ell 290, elapsed: 0.0008809566497802734
ell 289, elapsed: 0.0008800029754638672
ell 288, elapsed: 0.0008978843688964844
ell 282, elapsed: 0.0016770362854003906
ell 281, elapsed: 0.0008521080017089844
ell 280, elapsed: 0.0010170936584472656
ell 279, elapsed: 0.0009150505065917969
ell 278, elapsed: 0.0009169578552246094
ell 272, elapsed: 0.001714944839477539
ell 271, elapsed: 0.0009100437164306641
ell 270, elapsed: 0.0009100437164306641
ell 269, elapsed: 0.0009071826934814453
ell 268, elapsed: 0.0009288787841796875
ell 262, elapsed: 0.00164794921875
ell 261, elapsed: 0.0008471012115478516
ell 260, elapsed: 0.0008480548858642578
ell 259, elapsed: 0.0008580684661865234
ell 258, elapsed: 0.0008461475372314453
ell 252, elapsed: 0.0016510486602783203
ell 251, elapsed: 0.0008699893951416016
ell 250, elapsed: 0.0008590221405029297
ell 249, elapsed: 0.0008549690246582031
ell 248, elapsed: 0.0008540153503417969
ell 242, elapsed: 0.00167083740234375
ell 241, elapsed: 0.0008649826049804688
ell 240, elapsed: 0.0008580684661865234
ell 239, elapsed: 0.0008540153503417969
ell 238, elapsed: 0.0008718967437744141
ell 232, elapsed: 0.00185394287109375
ell 231, elapsed: 0.0008368492126464844
ell 230, elapsed: 0.0008289813995361328
ell 229, elapsed: 0.0008609294891357422
ell 228, elapsed: 0.0008399486541748047
ell 222, elapsed: 0.001650094985961914
ell 221, elapsed: 0.0008571147918701172
ell 220, elapsed: 0.0008411407470703125
ell 219, elapsed: 0.0008411407470703125
ell 218, elapsed: 0.0008409023284912109
ell 212, elapsed: 0.0016520023345947266
ell 211, elapsed: 0.0008418560028076172
ell 210, elapsed: 0.0008339881896972656
ell 209, elapsed: 0.0008280277252197266
ell 208, elapsed: 0.0008320808410644531
ell 202, elapsed: 0.001644134521484375
ell 201, elapsed: 0.0008368492126464844
ell 200, elapsed: 0.0008490085601806641
ell 199, elapsed: 0.0008499622344970703
ell 198, elapsed: 0.0008358955383300781
ell 192, elapsed: 0.0016241073608398438
ell 191, elapsed: 0.0008480548858642578
ell 190, elapsed: 0.0008549690246582031
ell 189, elapsed: 0.0008389949798583984
ell 188, elapsed: 0.0008389949798583984
ell 182, elapsed: 0.0016450881958007812
ell 181, elapsed: 0.0008640289306640625
ell 180, elapsed: 0.0008440017700195312
ell 179, elapsed: 0.0008308887481689453
ell 178, elapsed: 0.0008389949798583984
ell 172, elapsed: 0.0016438961029052734
ell 171, elapsed: 0.0012569427490234375
ell 170, elapsed: 0.0008680820465087891
ell 169, elapsed: 0.0009069442749023438
ell 168, elapsed: 0.0009081363677978516
ell 162, elapsed: 0.001750946044921875
ell 161, elapsed: 0.0009660720825195312
ell 160, elapsed: 0.0009098052978515625
ell 159, elapsed: 0.0009109973907470703
ell 158, elapsed: 0.0009119510650634766
ell 152, elapsed: 0.0017559528350830078
ell 151, elapsed: 0.0009138584136962891
ell 150, elapsed: 0.0009148120880126953
ell 149, elapsed: 0.0009121894836425781
ell 148, elapsed: 0.000982046127319336
ell 142, elapsed: 0.0019550323486328125
ell 141, elapsed: 0.0008988380432128906
ell 140, elapsed: 0.0013358592987060547
ell 139, elapsed: 0.0008640289306640625
ell 138, elapsed: 0.0009260177612304688
ell 132, elapsed: 0.0017478466033935547
ell 131, elapsed: 0.0009109973907470703
ell 130, elapsed: 0.0009000301361083984
ell 129, elapsed: 0.0009579658508300781
ell 128, elapsed: 0.0009539127349853516
ell 122, elapsed: 0.0018110275268554688
ell 121, elapsed: 0.0009620189666748047
ell 120, elapsed: 0.0009551048278808594
ell 119, elapsed: 0.0009829998016357422
ell 118, elapsed: 0.0009949207305908203
ell 112, elapsed: 0.0018048286437988281
ell 111, elapsed: 0.0009629726409912109
ell 110, elapsed: 0.0009889602661132812
ell 109, elapsed: 0.0009691715240478516
ell 108, elapsed: 0.0009641647338867188
ell 102, elapsed: 0.002001047134399414
ell 101, elapsed: 0.003542184829711914
ell 100, elapsed: 0.004061222076416016
ell 99, elapsed: 0.004440784454345703
ell 98, elapsed: 0.003763914108276367
ell 92, elapsed: 0.006618022918701172
ell 91, elapsed: 0.003638029098510742
ell 90, elapsed: 0.0035610198974609375
ell 89, elapsed: 0.0035572052001953125
ell 88, elapsed: 0.003537893295288086
ell 82, elapsed: 0.007470130920410156
ell 81, elapsed: 0.0036029815673828125
ell 80, elapsed: 0.00430607795715332
ell 79, elapsed: 0.0044651031494140625
ell 78, elapsed: 0.003515005111694336
ell 72, elapsed: 0.006623983383178711
ell 71, elapsed: 0.003571033477783203
ell 70, elapsed: 0.0035560131072998047
ell 69, elapsed: 0.0044040679931640625
ell 68, elapsed: 0.004185199737548828
ell 62, elapsed: 0.00739598274230957
ell 61, elapsed: 0.00475001335144043
ell 60, elapsed: 0.004906177520751953
ell 59, elapsed: 0.004899024963378906
ell 58, elapsed: 0.004865884780883789
ell 52, elapsed: 0.007880926132202148
ell 51, elapsed: 0.0031299591064453125
ell 50, elapsed: 0.003165006637573242
ell 49, elapsed: 0.0031609535217285156
ell 48, elapsed: 0.0031571388244628906
ell 42, elapsed: 0.00580596923828125
ell 41, elapsed: 0.0031511783599853516
ell 40, elapsed: 0.003175973892211914
ell 39, elapsed: 0.0031909942626953125
ell 38, elapsed: 0.004089832305908203
ell 32, elapsed: 0.007456779479980469
ell 31, elapsed: 0.0035920143127441406
ell 30, elapsed: 0.0035021305084228516
ell 29, elapsed: 0.0039520263671875
ell 28, elapsed: 0.0036652088165283203
ell 22, elapsed: 0.006932973861694336
ell 21, elapsed: 0.003888845443725586
ell 20, elapsed: 0.0032830238342285156
ell 19, elapsed: 0.003606081008911133
ell 18, elapsed: 0.0035889148712158203
ell 12, elapsed: 0.006613016128540039
ell 11, elapsed: 0.003568887710571289
ell 10, elapsed: 0.003543853759765625
ell 9, elapsed: 0.003504037857055664
ell 8, elapsed: 0.003504037857055664
  0.907610 seconds (66.75 k allocations: 12.139 MiB, 5.06% gc time)
elapsed: 0.004561901092529297
step:          0.079862 sec (0 allocations: 0 byte, 0.0% gc time)
swapping:      0.000776 sec (0 allocations: 0 byte, 0.0% gc time)
calc_Mellell!: 0.042526 sec (0 allocations: 0 byte, 0.0% gc time)
  t0 :  0.010622 sec (0 allocations: 0 byte, 0.0% gc time)
  tm2 : 0.079675 sec (0 allocations: 0 byte, 0.0% gc time)
  tm2s: 0.009298 sec (0 allocations: 0 byte, 0.0% gc time)
  tm4 : 0.192785 sec (0 allocations: 0 byte, 0.0% gc time)
  tp2 : 0.0 sec (0 allocations: 0 byte, 0.0% gc time)
  tp2s: 0.0 sec (0 allocations: 0 byte, 0.0% gc time)
  tp4 : 0.0 sec (0 allocations: 0 byte, 0.0% gc time)
calc_wtdll!:   0.610211 sec (49.2 k allocations: 11.133 MB, 7.52% gc time)
calc_wljj!:    0.042389 sec (69 allocations: 1.078 KB, 0.0% gc time)
mult_prefac!:  0.0 sec (0 allocations: 0 byte, 0.0% gc time)
convert:       0.0 sec (0 allocations: 0 byte, 0.0% gc time)
write:         0.038467 sec (0 allocations: 0 byte, 0.0% gc time)
test_rand_2f1: 0.0 sec (0 allocations: 0 byte, 0.0% gc time)
Closing outfile out/MlCache/MlCache.bin...   0.000009 seconds
xi, l=0, nu=0:   0.438719 seconds (551.85 k allocations: 26.842 MiB, 6.93% gc time)
xi, l=0, nu=-2:  0.002346 seconds (144 allocations: 149.562 KiB)
Created 'out/xi.tsv'.
  q=1.1, R=0.6:	  0.833215 seconds (291.08 k allocations: 38.895 MiB, 6.86% gc time)
  q=1.1, R=0.7:	  0.851587 seconds (304.75 k allocations: 40.996 MiB)
  q=1.1, R=0.8:	  0.949816 seconds (299.14 k allocations: 40.132 MiB, 1.63% gc time)
  q=1.1, R=0.9:	  1.044488 seconds (293.57 k allocations: 39.286 MiB, 2.77% gc time)
  q=1.1, R=0.998:	 21.614952 seconds (10.67 M allocations: 823.453 MiB, 0.88% gc time)
  q=1.1, R=1.0:	  0.005107 seconds (10.24 k allocations: 768.375 KiB)

ℓ = 1000
Δℓ = 4
ΔℓRg1 = -4
N = 4096
q = 1.1
kmin = 1.0e-5
kmax = 1000.0
χ0 = 0.001
RR = RR.tsv
ℓmax = ℓmax.bin
f21 = f21.bin
kmin = 1.0e-5
kmax = 1000.0
dlrec    = 4
dlrecRg1 = -4
Output size: 1573632 bytes = 0.0014655590057373047 GiB
Output size: 786816 bytes = 0.0007327795028686523 GiB
Reading 'out/F21EllCache'...   0.001570 seconds (268 allocations: 533.531 KiB)
ellmax: 1002
lmaxcache: 1000
fell[:,1,1] = Complex{Float64}[1.7262928128202118e-224 - 4.2281979352226944e-240im, 1.7282693092099662e-224 - 4.233038955177176e-240im]
ell 1002, elapsed: 2.6941299438476562e-5
ell 1001, elapsed: 0.0013189315795898438
ell 1000, elapsed: 0.0010340213775634766
ell 999, elapsed: 0.007715940475463867
ell 998, elapsed: 0.0074689388275146484
ell 44, elapsed: 0.7589590549468994
ell 43, elapsed: 0.005272865295410156
ell 42, elapsed: 0.005529880523681641
ell 41, elapsed: 0.006329059600830078
ell 40, elapsed: 0.005513191223144531
  0.807490 seconds (4.55 k allocations: 320.031 KiB)
elapsed: 0.0071868896484375
step:          0.754198 sec (0 allocations: 0 byte, 0.0% gc time)
swapping:      0.000577 sec (0 allocations: 0 byte, 0.0% gc time)
calc_Mellell!: 0.001327 sec (0 allocations: 0 byte, 0.0% gc time)
  t0 :  0.000917 sec (0 allocations: 0 byte, 0.0% gc time)
  tm2 : 0.010806 sec (0 allocations: 0 byte, 0.0% gc time)
  tm2s: 0.000759 sec (0 allocations: 0 byte, 0.0% gc time)
  tm4 : 0.030633 sec (0 allocations: 0 byte, 0.0% gc time)
  tp2 : 0.0 sec (0 allocations: 0 byte, 0.0% gc time)
  tp2s: 0.0 sec (0 allocations: 0 byte, 0.0% gc time)
  tp4 : 0.0 sec (0 allocations: 0 byte, 0.0% gc time)
calc_wtdll!:   0.043603 sec (480 allocations: 52.5 KB, 0.0% gc time)
calc_wljj!:    0.001848 sec (1 allocations: 16 byte, 0.0% gc time)
mult_prefac!:  0.0 sec (0 allocations: 0 byte, 0.0% gc time)
convert:       0.0 sec (0 allocations: 0 byte, 0.0% gc time)
write:         0.001037 sec (0 allocations: 0 byte, 0.0% gc time)
test_rand_2f1: 0.0 sec (0 allocations: 0 byte, 0.0% gc time)
Closing outfile out/MlCache/MlCache.bin...   0.001529 seconds
  0.515537 seconds (54 allocations: 67.203 KiB)
make_phi():   0.009768 seconds (80 allocations: 276.297 KiB)
  0.003277 seconds (108 allocations: 5.812 KiB)
tskip:       1.0e-6 sec (0 allocations: 0 byte, 0.0% gc time)
tread:       0.000661 sec (19 allocations: 1.312 KB, 0.0% gc time)
tmultphi:    0.000366 sec (0 allocations: 0 byte, 0.0% gc time)
tbrfft:      0.001189 sec (96 allocations: 4.5 KB, 0.0% gc time)
tmultprefac: 0.000941 sec (0 allocations: 0 byte, 0.0% gc time)
toutfunc:    0.000221 sec (0 allocations: 0 byte, 0.0% gc time)
Created 'out/wl42_jj00.tsv'.
Created 'out/wl42_jj02.tsv'.
   Testing TwoFAST tests passed 
