Julia Version 1.3.0
Commit 46ce4d7933 (2019-11-26 06:09 UTC)
Platform Info:
  OS: Linux (x86_64-pc-linux-gnu)
  CPU: Intel(R) Xeon(R) Silver 4114 CPU @ 2.20GHz
  WORD_SIZE: 64
  LIBM: libopenlibm
  LLVM: libLLVM-6.0.1 (ORCJIT, skylake)

   Cloning default registries into `~/.julia`
   Cloning registry from "https://github.com/JuliaRegistries/General.git"
[?25l    Fetching: [>                                        ]  0.0 %    Fetching: [=============>                           ]  30.3 %    Fetching: [===========================>             ]  66.2 %[2K[?25h     Added registry `General` to `~/.julia/registries/General`
 Resolving package versions...
 Installed VersionParsing ─── v1.1.3
 Installed IncGammaBeta ───── v0.1.0
 Installed URIParser ──────── v0.4.0
 Installed Reexport ───────── v0.2.0
 Installed BinDeps ────────── v1.0.0
 Installed SpecialFunctions ─ v0.8.0
 Installed AbstractAlgebra ── v0.7.1
 Installed TwoFAST ────────── v0.1.0
 Installed FFTW ───────────── v1.1.0
 Installed JSON ───────────── v0.21.0
 Installed Compat ─────────── v2.2.0
 Installed Conda ──────────── v1.3.0
 Installed BinaryProvider ─── v0.5.8
 Installed Parsers ────────── v0.3.10
 Installed AbstractFFTs ───── v0.5.0
 Installed Nemo ───────────── v0.15.1
  Updating `~/.julia/environments/v1.3/Project.toml`
  [0dd23c3e] + TwoFAST v0.1.0
  Updating `~/.julia/environments/v1.3/Manifest.toml`
  [c3fe647b] + AbstractAlgebra v0.7.1
  [621f4979] + AbstractFFTs v0.5.0
  [9e28174c] + BinDeps v1.0.0
  [b99e7846] + BinaryProvider v0.5.8
  [34da2185] + Compat v2.2.0
  [8f4d0f93] + Conda v1.3.0
  [7a1cc6ca] + FFTW v1.1.0
  [5087d2c0] + IncGammaBeta v0.1.0
  [682c06a0] + JSON v0.21.0
  [2edaba10] + Nemo v0.15.1
  [69de0a69] + Parsers v0.3.10
  [189a3867] + Reexport v0.2.0
  [276daf66] + SpecialFunctions v0.8.0
  [0dd23c3e] + TwoFAST v0.1.0
  [30578b45] + URIParser v0.4.0
  [81def892] + VersionParsing v1.1.3
  [2a0f44e3] + Base64 
  [ade2ca70] + Dates 
  [8bb1440f] + DelimitedFiles 
  [8ba89e20] + Distributed 
  [b77e0a4c] + InteractiveUtils 
  [76f85450] + LibGit2 
  [8f399da3] + Libdl 
  [37e2e46d] + LinearAlgebra 
  [56ddb016] + Logging 
  [d6f4376e] + Markdown 
  [a63ad114] + Mmap 
  [44cfe95a] + Pkg 
  [de0858da] + Printf 
  [3fa0cd96] + REPL 
  [9a3f8284] + Random 
  [ea8e919c] + SHA 
  [9e88b42a] + Serialization 
  [1a1011a3] + SharedArrays 
  [6462fe0b] + Sockets 
  [2f01184e] + SparseArrays 
  [10745b16] + Statistics 
  [8dfed614] + Test 
  [cf7118a7] + UUIDs 
  [4ec0a83e] + Unicode 
  Building SpecialFunctions → `~/.julia/packages/SpecialFunctions/ne2iw/deps/build.log`
  Building Conda ───────────→ `~/.julia/packages/Conda/kLXeC/deps/build.log`
  Building FFTW ────────────→ `~/.julia/packages/FFTW/loJ3F/deps/build.log`
  Building Nemo ────────────→ `~/.julia/packages/Nemo/qzx0m/deps/build.log`
   Testing TwoFAST
 Resolving package versions...
 Installed Dierckx ─ v0.4.1
  Building Dierckx → `~/.julia/packages/Dierckx/9SY4A/deps/build.log`
    Status `/tmp/jl_Upt4nI/Manifest.toml`
  [c3fe647b] AbstractAlgebra v0.7.1
  [621f4979] AbstractFFTs v0.5.0
  [9e28174c] BinDeps v1.0.0
  [b99e7846] BinaryProvider v0.5.8
  [34da2185] Compat v2.2.0
  [8f4d0f93] Conda v1.3.0
  [39dd38d3] Dierckx v0.4.1
  [7a1cc6ca] FFTW v1.1.0
  [5087d2c0] IncGammaBeta v0.1.0
  [682c06a0] JSON v0.21.0
  [2edaba10] Nemo v0.15.1
  [69de0a69] Parsers v0.3.10
  [189a3867] Reexport v0.2.0
  [276daf66] SpecialFunctions v0.8.0
  [0dd23c3e] TwoFAST v0.1.0
  [30578b45] URIParser v0.4.0
  [81def892] VersionParsing v1.1.3
  [2a0f44e3] Base64  [`@stdlib/Base64`]
  [ade2ca70] Dates  [`@stdlib/Dates`]
  [8bb1440f] DelimitedFiles  [`@stdlib/DelimitedFiles`]
  [8ba89e20] Distributed  [`@stdlib/Distributed`]
  [b77e0a4c] InteractiveUtils  [`@stdlib/InteractiveUtils`]
  [76f85450] LibGit2  [`@stdlib/LibGit2`]
  [8f399da3] Libdl  [`@stdlib/Libdl`]
  [37e2e46d] LinearAlgebra  [`@stdlib/LinearAlgebra`]
  [56ddb016] Logging  [`@stdlib/Logging`]
  [d6f4376e] Markdown  [`@stdlib/Markdown`]
  [a63ad114] Mmap  [`@stdlib/Mmap`]
  [44cfe95a] Pkg  [`@stdlib/Pkg`]
  [de0858da] Printf  [`@stdlib/Printf`]
  [3fa0cd96] REPL  [`@stdlib/REPL`]
  [9a3f8284] Random  [`@stdlib/Random`]
  [ea8e919c] SHA  [`@stdlib/SHA`]
  [9e88b42a] Serialization  [`@stdlib/Serialization`]
  [1a1011a3] SharedArrays  [`@stdlib/SharedArrays`]
  [6462fe0b] Sockets  [`@stdlib/Sockets`]
  [2f01184e] SparseArrays  [`@stdlib/SparseArrays`]
  [10745b16] Statistics  [`@stdlib/Statistics`]
  [8dfed614] Test  [`@stdlib/Test`]
  [cf7118a7] UUIDs  [`@stdlib/UUIDs`]
  [4ec0a83e] Unicode  [`@stdlib/Unicode`]

Welcome to Nemo version 0.15.1

Nemo comes with absolutely no warranty whatsoever


Welcome to Nemo version 0.15.1

Nemo comes with absolutely no warranty whatsoever

Testing ξ(r), ℓ=0, ν=-1 ... passed
Testing ξ(r), ℓ=0, ν=0 ... passed
Testing ξ(r), ℓ=0, ν=1 ... passed
Testing ξ(r), ℓ=0, ν=2 ... passed
Testing ξ(r), ℓ=0, ν=3 ... passed
Testing ξ(r), ℓ=1, ν=0 ... passed
Testing ξ(r), ℓ=1, ν=1 ... passed
Testing ξ(r), ℓ=1, ν=2 ... passed
Testing ξ(r), ℓ=1, ν=3 ... passed
Testing ξ(r), ℓ=2, ν=-1 ... passed
Testing ξ(r), ℓ=2, ν=0 ... passed
Testing ξ(r), ℓ=2, ν=1 ... passed
Testing ξ(r), ℓ=2, ν=2 ... passed
Testing ξ(r), ℓ=2, ν=3 ... passed
Testing ξ(r), ℓ=3, ν=-1 ... passed
Testing ξ(r), ℓ=3, ν=0 ... passed
Testing ξ(r), ℓ=3, ν=1 ... passed
Testing ξ(r), ℓ=3, ν=2 ... passed
Testing ξ(r), ℓ=3, ν=3 ... passed
Testing ξ(r), ℓ=4, ν=-1 ... passed
Testing ξ(r), ℓ=4, ν=0 ... passed
Testing ξ(r), ℓ=4, ν=1 ... passed
Testing ξ(r), ℓ=4, ν=2 ... passed
Testing ξ(r), ℓ=4, ν=3 ... passed
Testing ξ(r) ... passed
Testing ξ′(r) ... passed
Testing ξ″(r) ... passed
Calculating fmax: 
  dlrec    = 4
  dlrecRg1 = -4
  q=1.1, R=1.1:	  3.732588 seconds (1.11 M allocations: 119.114 MiB, 4.20% gc time)

  3.755863 seconds (1.11 M allocations: 119.472 MiB, 4.18% gc time)
ℓ = 1202
Δℓ = 4
ΔℓRg1 = -4
N = 1600
q = 1.1
kmin = 1.0e-5
kmax = 100000.00000000004
χ0 = 0.023029999999999995
RR = RR.tsv
ℓmax = ℓmax.bin
f21 = f21.bin
kmin = 1.0e-5
kmax = 100000.0
dlrec    = 4
dlrecRg1 = -4
Output size: 5741568 bytes = 0.005347251892089844 GiB
Output size: 51264 bytes = 4.774332046508789e-5 GiB
Reading 'out/F21EllCache'...   0.549408 seconds (348.12 k allocations: 17.867 MiB, 3.67% gc time)
ellmax: 1202
lmaxcache: 1202
fell[:,1,1] = Complex{Float64}[3.9583795592771634e-52 - 9.695233714158177e-68im, 3.990121772925759e-52 - 9.772979714843386e-68im]
ell 1202, elapsed: 0.003885030746459961
ell 1201, elapsed: 2.550158977508545
ell 1200, elapsed: 0.0005109310150146484
ell 1199, elapsed: 0.000453948974609375
ell 1198, elapsed: 0.0004489421844482422
ell 1002, elapsed: 0.00984501838684082
ell 1001, elapsed: 0.0004391670227050781
ell 1000, elapsed: 0.0004279613494873047
ell 999, elapsed: 0.00042700767517089844
ell 998, elapsed: 0.000431060791015625
ell 902, elapsed: 0.005089998245239258
ell 901, elapsed: 0.00045299530029296875
ell 900, elapsed: 0.00043201446533203125
ell 899, elapsed: 0.00043702125549316406
ell 898, elapsed: 0.00043511390686035156
ell 802, elapsed: 0.005136966705322266
ell 801, elapsed: 0.00045609474182128906
ell 800, elapsed: 0.0005240440368652344
ell 799, elapsed: 0.00043702125549316406
ell 798, elapsed: 0.00043082237243652344
ell 702, elapsed: 0.005012989044189453
ell 701, elapsed: 0.00043892860412597656
ell 700, elapsed: 0.00043702125549316406
ell 699, elapsed: 0.00043201446533203125
ell 698, elapsed: 0.0005211830139160156
ell 602, elapsed: 0.005117177963256836
ell 601, elapsed: 0.0004379749298095703
ell 600, elapsed: 0.0004291534423828125
ell 599, elapsed: 0.0004329681396484375
ell 598, elapsed: 0.00043201446533203125
ell 502, elapsed: 0.005006074905395508
ell 501, elapsed: 0.0004508495330810547
ell 500, elapsed: 0.0004279613494873047
ell 499, elapsed: 0.00043487548828125
ell 498, elapsed: 0.0004298686981201172
ell 402, elapsed: 0.005118846893310547
ell 401, elapsed: 0.0006151199340820312
ell 400, elapsed: 0.000431060791015625
ell 399, elapsed: 0.0004260540008544922
ell 398, elapsed: 0.0004279613494873047
ell 302, elapsed: 0.004996061325073242
ell 301, elapsed: 0.0004401206970214844
ell 300, elapsed: 0.0004298686981201172
ell 299, elapsed: 0.0005102157592773438
ell 298, elapsed: 0.0004329681396484375
ell 202, elapsed: 0.00506901741027832
ell 201, elapsed: 0.0004448890686035156
ell 200, elapsed: 0.00043010711669921875
ell 199, elapsed: 0.0004279613494873047
ell 198, elapsed: 0.00044798851013183594
ell 152, elapsed: 0.0025801658630371094
ell 151, elapsed: 0.0004398822784423828
ell 150, elapsed: 0.0004291534423828125
ell 149, elapsed: 0.0004401206970214844
ell 148, elapsed: 0.0004279613494873047
ell 127, elapsed: 0.0015101432800292969
ell 126, elapsed: 0.0004410743713378906
ell 125, elapsed: 0.000431060791015625
ell 124, elapsed: 0.00042891502380371094
ell 123, elapsed: 0.0004410743713378906
ell 114, elapsed: 0.0008451938629150391
ell 113, elapsed: 0.0004699230194091797
ell 112, elapsed: 0.0004730224609375
ell 111, elapsed: 0.00042700767517089844
ell 110, elapsed: 0.00042891502380371094
ell 102, elapsed: 0.0009222030639648438
ell 101, elapsed: 0.0004329681396484375
ell 100, elapsed: 0.000431060791015625
ell 99, elapsed: 0.0004258155822753906
ell 98, elapsed: 0.0004260540008544922
ell 97, elapsed: 0.0004699230194091797
ell 96, elapsed: 0.0005671977996826172
ell 95, elapsed: 0.00046896934509277344
ell 94, elapsed: 0.0005900859832763672
ell 93, elapsed: 0.0005190372467041016
ell 92, elapsed: 0.0005428791046142578
ell 91, elapsed: 0.00046706199645996094
ell 90, elapsed: 0.0005369186401367188
ell 89, elapsed: 0.00045990943908691406
ell 88, elapsed: 0.0005428791046142578
ell 87, elapsed: 0.0004780292510986328
ell 86, elapsed: 0.0005428791046142578
ell 85, elapsed: 0.00046706199645996094
ell 84, elapsed: 0.0005450248718261719
ell 83, elapsed: 0.00045990943908691406
ell 82, elapsed: 0.000537872314453125
ell 81, elapsed: 0.0004639625549316406
ell 80, elapsed: 0.0005609989166259766
ell 79, elapsed: 0.0004658699035644531
ell 78, elapsed: 0.0005369186401367188
ell 77, elapsed: 0.0004620552062988281
ell 76, elapsed: 0.0005390644073486328
ell 75, elapsed: 0.0004699230194091797
ell 74, elapsed: 0.0005450248718261719
ell 73, elapsed: 0.00047087669372558594
ell 72, elapsed: 0.0005271434783935547
ell 71, elapsed: 0.0004620552062988281
ell 70, elapsed: 0.0005688667297363281
ell 69, elapsed: 0.0005230903625488281
ell 68, elapsed: 0.0005369186401367188
ell 67, elapsed: 0.0004839897155761719
ell 66, elapsed: 0.0006320476531982422
ell 65, elapsed: 0.0004661083221435547
ell 64, elapsed: 0.0005421638488769531
ell 63, elapsed: 0.0004639625549316406
ell 62, elapsed: 0.0005390644073486328
ell 61, elapsed: 0.00046706199645996094
ell 60, elapsed: 0.0005550384521484375
ell 59, elapsed: 0.0004830360412597656
ell 58, elapsed: 0.0005459785461425781
ell 57, elapsed: 0.0004630088806152344
ell 56, elapsed: 0.0005390644073486328
ell 55, elapsed: 0.0004611015319824219
ell 54, elapsed: 0.0005600452423095703
ell 53, elapsed: 0.0005261898040771484
ell 52, elapsed: 0.0005590915679931641
ell 51, elapsed: 0.00046896934509277344
ell 50, elapsed: 0.0005509853363037109
ell 49, elapsed: 0.0004699230194091797
ell 48, elapsed: 0.0005409717559814453
ell 47, elapsed: 0.0004661083221435547
ell 46, elapsed: 0.0005440711975097656
ell 45, elapsed: 0.0004630088806152344
ell 44, elapsed: 0.0005550384521484375
ell 43, elapsed: 0.0004699230194091797
ell 42, elapsed: 0.0005481243133544922
ell 41, elapsed: 0.0004677772521972656
ell 40, elapsed: 0.0005509853363037109
ell 39, elapsed: 0.0004649162292480469
ell 38, elapsed: 0.0005540847778320312
ell 37, elapsed: 0.0004799365997314453
ell 36, elapsed: 0.0005459785461425781
ell 35, elapsed: 0.0004639625549316406
ell 34, elapsed: 0.0005419254302978516
ell 33, elapsed: 0.00045990943908691406
ell 32, elapsed: 0.0005481243133544922
ell 31, elapsed: 0.0004668235778808594
ell 30, elapsed: 0.0005581378936767578
ell 29, elapsed: 0.0004649162292480469
ell 28, elapsed: 0.0005509853363037109
ell 27, elapsed: 0.0004611015319824219
ell 26, elapsed: 0.0005359649658203125
ell 25, elapsed: 0.0004661083221435547
ell 24, elapsed: 0.0005381107330322266
ell 23, elapsed: 0.000492095947265625
ell 22, elapsed: 0.0005519390106201172
ell 21, elapsed: 0.0004601478576660156
ell 20, elapsed: 0.0005688667297363281
ell 19, elapsed: 0.0005271434783935547
ell 18, elapsed: 0.0005390644073486328
ell 17, elapsed: 0.0004639625549316406
ell 16, elapsed: 0.005192995071411133
ell 15, elapsed: 0.0005021095275878906
ell 14, elapsed: 0.0005431175231933594
ell 13, elapsed: 0.00045108795166015625
ell 12, elapsed: 0.0005600452423095703
ell 11, elapsed: 0.00045990943908691406
ell 10, elapsed: 0.0005409717559814453
ell 9, elapsed: 0.0004558563232421875
ell 8, elapsed: 0.0005700588226318359
ell 7, elapsed: 0.0004589557647705078
ell 6, elapsed: 0.0005290508270263672
ell 5, elapsed: 0.0004589557647705078
ell 4, elapsed: 0.0005478858947753906
ell 3, elapsed: 0.00047206878662109375
ell 2, elapsed: 0.0005459785461425781
ell 1, elapsed: 0.0004649162292480469
ell 0, elapsed: 0.0005419254302978516
  2.798493 seconds (1.51 M allocations: 74.494 MiB, 2.72% gc time)
elapsed: 0.0006358623504638672
step:          0.844676 sec (477.89 k allocations: 23.729 MB, 0.0% gc time)
swapping:      0.000525 sec (0 allocations: 0 byte, 0.0% gc time)
calc_Mellell!: 0.59632 sec (371.439 k allocations: 18.4 MB, 0.0% gc time)
  t0 :  0.0 sec (0 allocations: 0 byte, 0.0% gc time)
  tm2 : 0.0 sec (0 allocations: 0 byte, 0.0% gc time)
  tm2s: 0.0 sec (0 allocations: 0 byte, 0.0% gc time)
  tm4 : 0.0 sec (0 allocations: 0 byte, 0.0% gc time)
  tp2 : 0.0 sec (0 allocations: 0 byte, 0.0% gc time)
  tp2s: 0.0 sec (0 allocations: 0 byte, 0.0% gc time)
  tp4 : 0.0 sec (0 allocations: 0 byte, 0.0% gc time)
calc_wtdll!:   1.230418 sec (571.762 k allocations: 28.059 MB, 6.19% gc time)
calc_wljj!:    0.00378 sec (6 allocations: 96 byte, 0.0% gc time)
mult_prefac!:  0.0 sec (0 allocations: 0 byte, 0.0% gc time)
convert:       0.0 sec (0 allocations: 0 byte, 0.0% gc time)
write:         0.005047 sec (0 allocations: 0 byte, 0.0% gc time)
test_rand_2f1: 0.0 sec (0 allocations: 0 byte, 0.0% gc time)
Closing outfile out/Ml21-cache.bin...   0.000122 seconds
  1.045275 seconds (8.63 k allocations: 420.063 KiB)
make_phi():   0.015009 seconds (8.20 k allocations: 238.016 KiB)
  0.234530 seconds (121.94 k allocations: 5.916 MiB)
tskip:       3.0e-5 sec (0 allocations: 0 byte, 0.0% gc time)
tread:       0.002894 sec (20 allocations: 2.188 KB, 0.0% gc time)
tmultphi:    0.049794 sec (26.146 k allocations: 1.344 MB, 0.0% gc time)
tbrfft:      0.006692 sec (896 allocations: 42.0 KB, 0.0% gc time)
tmultprefac: 0.003756 sec (0 allocations: 0 byte, 0.0% gc time)
toutfunc:    0.171092 sec (94.228 k allocations: 4.459 MB, 0.0% gc time)
Testing R=1.1 ... passed
Calculating fmax: 
  dlrec    = 4
  dlrecRg1 = -4
  q=1.1, R=1.0:	  0.017548 seconds (4.81 k allocations: 3.569 MiB)

  0.017782 seconds (4.87 k allocations: 3.601 MiB)
ℓ = 1202
Δℓ = 4
ΔℓRg1 = -4
N = 1600
q = 1.1
kmin = 1.0e-5
kmax = 100000.00000000004
χ0 = 0.023029999999999995
RR = RR.tsv
ℓmax = ℓmax.bin
f21 = f21.bin
kmin = 1.0e-5
kmax = 100000.0
dlrec    = 4
dlrecRg1 = -4
Output size: 61465536 bytes = 0.05724424123764038 GiB
Output size: 51264 bytes = 4.774332046508789e-5 GiB
Reading 'out/F21EllCache'...   0.001496 seconds (271 allocations: 84.719 KiB)
ellmax: 1202
lmaxcache: 1202
fell[:,1,1] = Complex{Float64}[809.6031528389767 - 1.9829558194077161e-13im, 0.0 + 0.0im]
ell 1202, elapsed: 2.5987625122070312e-5
ell 1201, elapsed: 0.016129016876220703
ell 1200, elapsed: 0.0004489421844482422
ell 1199, elapsed: 0.00043892860412597656
ell 1198, elapsed: 0.0004401206970214844
ell 1197, elapsed: 0.0005421638488769531
ell 1196, elapsed: 0.0004780292510986328
ell 1195, elapsed: 0.0009241104125976562
ell 1194, elapsed: 0.0005080699920654297
ell 1193, elapsed: 0.0005788803100585938
ell 1192, elapsed: 0.0004630088806152344
ell 1191, elapsed: 0.0006749629974365234
ell 1190, elapsed: 0.0004489421844482422
ell 1189, elapsed: 0.0006520748138427734
ell 1188, elapsed: 0.00045013427734375
ell 1187, elapsed: 0.0005400180816650391
ell 1186, elapsed: 0.0004508495330810547
ell 1185, elapsed: 0.0005369186401367188
ell 1184, elapsed: 0.00044798851013183594
ell 1183, elapsed: 0.0005459785461425781
ell 1182, elapsed: 0.0005421638488769531
ell 1181, elapsed: 0.0005550384521484375
ell 1180, elapsed: 0.0004489421844482422
ell 1179, elapsed: 0.0005438327789306641
ell 1178, elapsed: 0.0004508495330810547
ell 1177, elapsed: 0.0005419254302978516
ell 1176, elapsed: 0.0004470348358154297
ell 1175, elapsed: 0.0006380081176757812
ell 1174, elapsed: 0.0004451274871826172
ell 1173, elapsed: 0.0005409717559814453
ell 1172, elapsed: 0.0004470348358154297
ell 1171, elapsed: 0.0005390644073486328
ell 1170, elapsed: 0.00045108795166015625
ell 1169, elapsed: 0.0004551410675048828
ell 1168, elapsed: 0.0004889965057373047
ell 1167, elapsed: 0.0005619525909423828
ell 1166, elapsed: 0.0003581047058105469
ell 1165, elapsed: 0.00035309791564941406
ell 1164, elapsed: 0.00030994415283203125
ell 1163, elapsed: 0.0005781650543212891
ell 1162, elapsed: 0.000476837158203125
ell 1161, elapsed: 0.0003948211669921875
ell 1160, elapsed: 0.0004169940948486328
ell 1159, elapsed: 0.00038695335388183594
ell 1158, elapsed: 0.00026106834411621094
ell 1157, elapsed: 0.0003190040588378906
ell 1156, elapsed: 0.00025200843811035156
ell 1155, elapsed: 0.0003190040588378906
ell 1154, elapsed: 0.00026106834411621094
ell 1153, elapsed: 0.0003139972686767578
ell 1152, elapsed: 0.0002510547637939453
ell 1151, elapsed: 0.0003008842468261719
ell 1150, elapsed: 0.00024509429931640625
ell 1149, elapsed: 0.0004520416259765625
ell 1148, elapsed: 0.00036787986755371094
ell 1147, elapsed: 0.0003108978271484375
ell 1146, elapsed: 0.00024509429931640625
ell 1145, elapsed: 0.0003001689910888672
ell 1144, elapsed: 0.00024199485778808594
ell 1143, elapsed: 0.0003027915954589844
ell 1142, elapsed: 0.00024199485778808594
ell 1141, elapsed: 0.00030803680419921875
ell 1140, elapsed: 0.0002448558807373047
ell 1139, elapsed: 0.0003101825714111328
ell 1138, elapsed: 0.00023794174194335938
ell 1137, elapsed: 0.0005340576171875
ell 1136, elapsed: 0.00043320655822753906
ell 1135, elapsed: 0.0007269382476806641
ell 1134, elapsed: 0.0006120204925537109
ell 1133, elapsed: 0.0005469322204589844
ell 1132, elapsed: 0.00042510032653808594
ell 1131, elapsed: 0.0018868446350097656
ell 1130, elapsed: 0.0004210472106933594
ell 1129, elapsed: 0.0005140304565429688
ell 1128, elapsed: 0.0004048347473144531
ell 1127, elapsed: 0.0004909038543701172
ell 1126, elapsed: 0.00043082237243652344
ell 1125, elapsed: 0.0004909038543701172
ell 1124, elapsed: 0.0003998279571533203
ell 1123, elapsed: 0.0004799365997314453
ell 1122, elapsed: 0.0004031658172607422
ell 1121, elapsed: 0.0004839897155761719
ell 1120, elapsed: 0.00040793418884277344
ell 1119, elapsed: 0.0004928112030029297
ell 1118, elapsed: 0.0004489421844482422
ell 1117, elapsed: 0.0004761219024658203
ell 1116, elapsed: 0.00039887428283691406
ell 1115, elapsed: 0.00048804283142089844
ell 1114, elapsed: 0.0004119873046875
ell 1113, elapsed: 0.0004930496215820312
ell 1112, elapsed: 0.00040602684020996094
ell 1111, elapsed: 0.0004870891571044922
ell 1110, elapsed: 0.0004780292510986328
ell 1109, elapsed: 0.0005011558532714844
ell 1108, elapsed: 0.0004031658172607422
ell 1107, elapsed: 0.0004901885986328125
ell 1106, elapsed: 0.00040793418884277344
ell 1105, elapsed: 0.0004930496215820312
ell 1104, elapsed: 0.0004100799560546875
ell 1103, elapsed: 0.0005669593811035156
ell 1102, elapsed: 0.0003540515899658203
ell 1101, elapsed: 0.0004239082336425781
ell 1100, elapsed: 0.00035691261291503906
ell 1099, elapsed: 0.0004889965057373047
ell 1098, elapsed: 0.0003998279571533203
ell 1097, elapsed: 0.00048804283142089844
ell 1096, elapsed: 0.0004010200500488281
ell 1095, elapsed: 0.0004889965057373047
ell 1094, elapsed: 0.0004780292510986328
ell 1093, elapsed: 0.0005018711090087891
ell 1092, elapsed: 0.0003998279571533203
ell 1091, elapsed: 0.0004889965057373047
ell 1090, elapsed: 0.0004010200500488281
ell 1089, elapsed: 0.0004889965057373047
ell 1088, elapsed: 0.0004019737243652344
ell 1087, elapsed: 0.0005638599395751953
ell 1086, elapsed: 0.000408172607421875
ell 1085, elapsed: 0.0004909038543701172
ell 1084, elapsed: 0.00040602684020996094
ell 1083, elapsed: 0.0004918575286865234
ell 1082, elapsed: 0.0003991127014160156
ell 1081, elapsed: 0.00047898292541503906
ell 1080, elapsed: 0.0003981590270996094
ell 1079, elapsed: 0.0005700588226318359
ell 1078, elapsed: 0.0004010200500488281
ell 1077, elapsed: 0.0004949569702148438
ell 1076, elapsed: 0.00039887428283691406
ell 1075, elapsed: 0.0004818439483642578
ell 1074, elapsed: 0.00039887428283691406
ell 1073, elapsed: 0.00048613548278808594
ell 1072, elapsed: 0.0004050731658935547
ell 1071, elapsed: 0.000553131103515625
ell 1070, elapsed: 0.0004069805145263672
ell 1069, elapsed: 0.0005099773406982422
ell 1068, elapsed: 0.00039696693420410156
ell 1067, elapsed: 0.0004858970642089844
ell 1066, elapsed: 0.000408172607421875
ell 1065, elapsed: 0.0004820823669433594
ell 1064, elapsed: 0.0004029273986816406
ell 1063, elapsed: 0.0005669593811035156
ell 1062, elapsed: 0.0005180835723876953
ell 1061, elapsed: 0.0007688999176025391
ell 1060, elapsed: 0.0005931854248046875
ell 1059, elapsed: 0.0007472038269042969
ell 1058, elapsed: 0.0007009506225585938
ell 1057, elapsed: 0.0004949569702148438
ell 1056, elapsed: 0.0003600120544433594
ell 1055, elapsed: 0.0004570484161376953
ell 1054, elapsed: 0.00039005279541015625
ell 1053, elapsed: 0.0004699230194091797
ell 1052, elapsed: 0.0003688335418701172
ell 1051, elapsed: 0.0004649162292480469
ell 1050, elapsed: 0.0006120204925537109
ell 1049, elapsed: 0.000553131103515625
ell 1048, elapsed: 0.0005009174346923828
ell 1047, elapsed: 0.0006499290466308594
ell 1046, elapsed: 0.0004050731658935547
ell 1045, elapsed: 0.0004858970642089844
ell 1044, elapsed: 0.0004029273986816406
ell 1043, elapsed: 0.0005810260772705078
ell 1042, elapsed: 0.00040411949157714844
ell 1041, elapsed: 0.0004949569702148438
ell 1040, elapsed: 0.0004019737243652344
ell 1039, elapsed: 0.00048804283142089844
ell 1038, elapsed: 0.0004029273986816406
ell 1037, elapsed: 0.0005030632019042969
ell 1036, elapsed: 0.0004949569702148438
ell 1035, elapsed: 0.0004930496215820312
ell 1034, elapsed: 0.0005500316619873047
ell 1033, elapsed: 0.0007708072662353516
ell 1032, elapsed: 0.0004699230194091797
ell 1031, elapsed: 0.0004940032958984375
ell 1030, elapsed: 0.0004019737243652344
ell 1029, elapsed: 0.0005860328674316406
ell 1028, elapsed: 0.00045108795166015625
ell 1027, elapsed: 0.0004971027374267578
ell 1026, elapsed: 0.0003998279571533203
ell 1025, elapsed: 0.0004990100860595703
ell 1024, elapsed: 0.0004050731658935547
ell 1023, elapsed: 0.00067901611328125
ell 1022, elapsed: 0.000553131103515625
ell 1021, elapsed: 0.0005071163177490234
ell 1020, elapsed: 0.0003979206085205078
ell 1019, elapsed: 0.0004248619079589844
ell 1018, elapsed: 0.0003490447998046875
ell 1017, elapsed: 0.00042819976806640625
ell 1016, elapsed: 0.00035500526428222656
ell 1015, elapsed: 0.00042700767517089844
ell 1014, elapsed: 0.0004169940948486328
ell 1013, elapsed: 0.00043511390686035156
ell 1012, elapsed: 0.00034999847412109375
ell 1011, elapsed: 0.00043511390686035156
ell 1010, elapsed: 0.00034999847412109375
ell 1009, elapsed: 0.0004260540008544922
ell 1008, elapsed: 0.0003509521484375
ell 1007, elapsed: 0.0004229545593261719
ell 1006, elapsed: 0.0003631114959716797
ell 1005, elapsed: 0.0005168914794921875
ell 1004, elapsed: 0.0003509521484375
ell 1003, elapsed: 0.0004258155822753906
ell 1002, elapsed: 0.0003509521484375
ell 1001, elapsed: 0.0004279613494873047
ell 1000, elapsed: 0.00034999847412109375
ell 999, elapsed: 0.00042510032653808594
ell 998, elapsed: 0.0003528594970703125
ell 997, elapsed: 0.00041794776916503906
ell 996, elapsed: 0.0004210472106933594
ell 995, elapsed: 0.000431060791015625
ell 994, elapsed: 0.00034880638122558594
ell 993, elapsed: 0.0004341602325439453
ell 992, elapsed: 0.0003509521484375
ell 991, elapsed: 0.0004439353942871094
ell 990, elapsed: 0.0003528594970703125
ell 989, elapsed: 0.00042891502380371094
ell 988, elapsed: 0.0003509521484375
ell 987, elapsed: 0.0005128383636474609
ell 986, elapsed: 0.0003521442413330078
ell 985, elapsed: 0.0004220008850097656
ell 984, elapsed: 0.0003490447998046875
ell 983, elapsed: 0.0004239082336425781
ell 982, elapsed: 0.0003540515899658203
ell 981, elapsed: 0.00043201446533203125
ell 980, elapsed: 0.0003578662872314453
ell 979, elapsed: 0.00043392181396484375
ell 978, elapsed: 0.0005059242248535156
ell 977, elapsed: 0.00055694580078125
ell 976, elapsed: 0.0004398822784423828
ell 975, elapsed: 0.0005340576171875
ell 974, elapsed: 0.0004420280456542969
ell 973, elapsed: 0.0005350112915039062
ell 972, elapsed: 0.0004451274871826172
ell 971, elapsed: 0.0005440711975097656
ell 970, elapsed: 0.00034999847412109375
ell 969, elapsed: 0.0004298686981201172
ell 968, elapsed: 0.0003490447998046875
ell 967, elapsed: 0.00041985511779785156
ell 966, elapsed: 0.0003540515899658203
ell 965, elapsed: 0.0004379749298095703
ell 964, elapsed: 0.0003559589385986328
ell 963, elapsed: 0.00043582916259765625
ell 962, elapsed: 0.0003559589385986328
ell 961, elapsed: 0.00043487548828125
ell 960, elapsed: 0.0003509521484375
ell 959, elapsed: 0.0004329681396484375
ell 958, elapsed: 0.0003490447998046875
ell 957, elapsed: 0.00042700767517089844
ell 956, elapsed: 0.00034999847412109375
ell 955, elapsed: 0.0004220008850097656
ell 954, elapsed: 0.00035190582275390625
ell 953, elapsed: 0.0004999637603759766
ell 952, elapsed: 0.00040602684020996094
ell 951, elapsed: 0.000492095947265625
ell 950, elapsed: 0.0004069805145263672
ell 949, elapsed: 0.0005090236663818359
ell 948, elapsed: 0.00040602684020996094
ell 947, elapsed: 0.0004901885986328125
ell 946, elapsed: 0.0004780292510986328
ell 945, elapsed: 0.0004949569702148438
ell 944, elapsed: 0.0004048347473144531
ell 943, elapsed: 0.0005021095275878906
ell 942, elapsed: 0.0004088878631591797
ell 941, elapsed: 0.0004968643188476562
ell 940, elapsed: 0.0004088878631591797
ell 939, elapsed: 0.0004949569702148438
ell 938, elapsed: 0.0004911422729492188
ell 937, elapsed: 0.0004918575286865234
ell 936, elapsed: 0.00040411949157714844
ell 935, elapsed: 0.0004839897155761719
ell 934, elapsed: 0.00040602684020996094
ell 933, elapsed: 0.0004949569702148438
ell 932, elapsed: 0.00040411949157714844
ell 931, elapsed: 0.0005679130554199219
ell 930, elapsed: 0.00041604042053222656
ell 929, elapsed: 0.0005018711090087891
ell 928, elapsed: 0.0004050731658935547
ell 927, elapsed: 0.0005059242248535156
ell 926, elapsed: 0.0004069805145263672
ell 925, elapsed: 0.0004889965057373047
ell 924, elapsed: 0.0004048347473144531
ell 923, elapsed: 0.0006139278411865234
ell 922, elapsed: 0.0005748271942138672
ell 921, elapsed: 0.0006170272827148438
ell 920, elapsed: 0.00041413307189941406
ell 919, elapsed: 0.0004940032958984375
ell 918, elapsed: 0.00040602684020996094
ell 917, elapsed: 0.0004899501800537109
ell 916, elapsed: 0.0004608631134033203
ell 915, elapsed: 0.0005218982696533203
ell 914, elapsed: 0.0005638599395751953
ell 913, elapsed: 0.0004858970642089844
ell 912, elapsed: 0.0004048347473144531
ell 911, elapsed: 0.0004889965057373047
ell 910, elapsed: 0.00040793418884277344
ell 909, elapsed: 0.0005998611450195312
ell 908, elapsed: 0.0003559589385986328
ell 907, elapsed: 0.00042510032653808594
ell 906, elapsed: 0.0003829002380371094
ell 905, elapsed: 0.0004820823669433594
ell 904, elapsed: 0.0004050731658935547
ell 903, elapsed: 0.0004870891571044922
ell 902, elapsed: 0.00040411949157714844
ell 901, elapsed: 0.0006959438323974609
ell 900, elapsed: 0.0005540847778320312
ell 899, elapsed: 0.0005068778991699219
ell 898, elapsed: 0.0004019737243652344
ell 897, elapsed: 0.0004940032958984375
ell 896, elapsed: 0.0004010200500488281
ell 895, elapsed: 0.0005021095275878906
ell 894, elapsed: 0.00045800209045410156
ell 893, elapsed: 0.0004229545593261719
ell 892, elapsed: 0.0003478527069091797
ell 891, elapsed: 0.0004210472106933594
ell 890, elapsed: 0.00034999847412109375
ell 889, elapsed: 0.0004189014434814453
ell 888, elapsed: 0.0003490447998046875
ell 887, elapsed: 0.0004220008850097656
ell 886, elapsed: 0.00035190582275390625
ell 885, elapsed: 0.00045609474182128906
ell 884, elapsed: 0.0004029273986816406
ell 883, elapsed: 0.0004949569702148438
ell 882, elapsed: 0.0004069805145263672
ell 881, elapsed: 0.0004889965057373047
ell 880, elapsed: 0.0004107952117919922
ell 879, elapsed: 0.0004918575286865234
ell 878, elapsed: 0.00041103363037109375
ell 877, elapsed: 0.00048804283142089844
ell 876, elapsed: 0.0003528594970703125
ell 875, elapsed: 0.00043201446533203125
ell 874, elapsed: 0.00034880638122558594
ell 873, elapsed: 0.0004229545593261719
ell 872, elapsed: 0.00034999847412109375
ell 871, elapsed: 0.0004239082336425781
ell 870, elapsed: 0.00034809112548828125
ell 869, elapsed: 0.0004267692565917969
ell 868, elapsed: 0.0004169940948486328
ell 867, elapsed: 0.000514984130859375
ell 866, elapsed: 0.0004200935363769531
ell 865, elapsed: 0.0005218982696533203
ell 864, elapsed: 0.0004189014434814453
ell 863, elapsed: 0.0005080699920654297
ell 862, elapsed: 0.0004100799560546875
ell 861, elapsed: 0.0005919933319091797
ell 860, elapsed: 0.00040793418884277344
ell 859, elapsed: 0.0004858970642089844
ell 858, elapsed: 0.0004029273986816406
ell 857, elapsed: 0.0005011558532714844
ell 856, elapsed: 0.00040602684020996094
ell 855, elapsed: 0.00049591064453125
ell 854, elapsed: 0.0004088878631591797
ell 853, elapsed: 0.0005881786346435547
ell 852, elapsed: 0.0004048347473144531
ell 851, elapsed: 0.0004928112030029297
ell 850, elapsed: 0.0004031658172607422
ell 849, elapsed: 0.0004940032958984375
ell 848, elapsed: 0.00040602684020996094
ell 847, elapsed: 0.000492095947265625
ell 846, elapsed: 0.0004069805145263672
ell 845, elapsed: 0.0005939006805419922
ell 844, elapsed: 0.00041604042053222656
ell 843, elapsed: 0.0005040168762207031
ell 842, elapsed: 0.00040411949157714844
ell 841, elapsed: 0.0004928112030029297
ell 840, elapsed: 0.00040078163146972656
ell 839, elapsed: 0.0004930496215820312
ell 838, elapsed: 0.0004711151123046875
ell 837, elapsed: 0.0004930496215820312
ell 836, elapsed: 0.0004050731658935547
ell 835, elapsed: 0.0004279613494873047
ell 834, elapsed: 0.00035119056701660156
ell 833, elapsed: 0.00042319297790527344
ell 832, elapsed: 0.00034999847412109375
ell 831, elapsed: 0.00041294097900390625
ell 830, elapsed: 0.0003490447998046875
ell 829, elapsed: 0.0005660057067871094
ell 828, elapsed: 0.0004048347473144531
ell 827, elapsed: 0.00048804283142089844
ell 826, elapsed: 0.0004029273986816406
ell 825, elapsed: 0.0004930496215820312
ell 824, elapsed: 0.00040793418884277344
ell 823, elapsed: 0.0004930496215820312
ell 822, elapsed: 0.0004019737243652344
ell 821, elapsed: 0.0005731582641601562
ell 820, elapsed: 0.0004029273986816406
ell 819, elapsed: 0.00048613548278808594
ell 818, elapsed: 0.0004050731658935547
ell 817, elapsed: 0.0004909038543701172
ell 816, elapsed: 0.00040602684020996094
ell 815, elapsed: 0.0004868507385253906
ell 814, elapsed: 0.0004990100860595703
ell 813, elapsed: 0.0004980564117431641
ell 812, elapsed: 0.000408172607421875
ell 811, elapsed: 0.0004901885986328125
ell 810, elapsed: 0.0004119873046875
ell 809, elapsed: 0.0004899501800537109
ell 808, elapsed: 0.0003960132598876953
ell 807, elapsed: 0.0006930828094482422
ell 806, elapsed: 0.0005319118499755859
ell 805, elapsed: 0.0005109310150146484
ell 804, elapsed: 0.00040793418884277344
ell 803, elapsed: 0.0005061626434326172
ell 802, elapsed: 0.00040602684020996094
ell 801, elapsed: 0.0004851818084716797
ell 800, elapsed: 0.0004119873046875
ell 799, elapsed: 0.0006008148193359375
ell 798, elapsed: 0.0004029273986816406
ell 797, elapsed: 0.0004858970642089844
ell 796, elapsed: 0.00040602684020996094
ell 795, elapsed: 0.00048804283142089844
ell 794, elapsed: 0.00041294097900390625
ell 793, elapsed: 0.0004949569702148438
ell 792, elapsed: 0.0004107952117919922
ell 791, elapsed: 0.0005121231079101562
ell 790, elapsed: 0.0004088878631591797
ell 789, elapsed: 0.0005040168762207031
ell 788, elapsed: 0.00041604042053222656
ell 787, elapsed: 0.0005021095275878906
ell 786, elapsed: 0.00041604042053222656
ell 785, elapsed: 0.0004978179931640625
ell 784, elapsed: 0.0004801750183105469
ell 783, elapsed: 0.0004949569702148438
ell 782, elapsed: 0.0003581047058105469
ell 781, elapsed: 0.0004961490631103516
ell 780, elapsed: 0.00040602684020996094
ell 779, elapsed: 0.0004889965057373047
ell 778, elapsed: 0.0004048347473144531
ell 777, elapsed: 0.0004889965057373047
ell 776, elapsed: 0.0004889965057373047
ell 775, elapsed: 0.0004901885986328125
ell 774, elapsed: 0.00040602684020996094
ell 773, elapsed: 0.0004968643188476562
ell 772, elapsed: 0.0004019737243652344
ell 771, elapsed: 0.00049591064453125
ell 770, elapsed: 0.0004010200500488281
ell 769, elapsed: 0.0004780292510986328
ell 768, elapsed: 0.00040912628173828125
ell 767, elapsed: 0.0004999637603759766
ell 766, elapsed: 0.0004031658172607422
ell 765, elapsed: 0.0004839897155761719
ell 764, elapsed: 0.0004010200500488281
ell 763, elapsed: 0.0004858970642089844
ell 762, elapsed: 0.0004010200500488281
ell 761, elapsed: 0.0005729198455810547
ell 760, elapsed: 0.00040602684020996094
ell 759, elapsed: 0.0004780292510986328
ell 758, elapsed: 0.0003960132598876953
ell 757, elapsed: 0.000492095947265625
ell 756, elapsed: 0.00041294097900390625
ell 755, elapsed: 0.0004949569702148438
ell 754, elapsed: 0.00041413307189941406
ell 753, elapsed: 0.0005440711975097656
ell 752, elapsed: 0.0002510547637939453
ell 751, elapsed: 0.0003039836883544922
ell 750, elapsed: 0.0002429485321044922
ell 749, elapsed: 0.0002968311309814453
ell 748, elapsed: 0.0002429485321044922
ell 747, elapsed: 0.0002980232238769531
ell 746, elapsed: 0.00024199485778808594
ell 745, elapsed: 0.00030112266540527344
ell 744, elapsed: 0.00024199485778808594
ell 743, elapsed: 0.0002999305725097656
ell 742, elapsed: 0.000244140625
ell 741, elapsed: 0.0007829666137695312
ell 740, elapsed: 0.00043201446533203125
ell 739, elapsed: 0.0005650520324707031
ell 738, elapsed: 0.0004601478576660156
ell 737, elapsed: 0.0005578994750976562
ell 736, elapsed: 0.0004611015319824219
ell 735, elapsed: 0.00072479248046875
ell 734, elapsed: 0.0004608631134033203
ell 733, elapsed: 0.0005640983581542969
ell 732, elapsed: 0.0004448890686035156
ell 731, elapsed: 0.0005118846893310547
ell 730, elapsed: 0.0004210472106933594
ell 729, elapsed: 0.0005168914794921875
ell 728, elapsed: 0.0004131793975830078
ell 727, elapsed: 0.0005209445953369141
ell 726, elapsed: 0.0004169940948486328
ell 725, elapsed: 0.0005350112915039062
ell 724, elapsed: 0.0004279613494873047
ell 723, elapsed: 0.0004439353942871094
ell 722, elapsed: 0.00034880638122558594
ell 721, elapsed: 0.0004260540008544922
ell 720, elapsed: 0.00037598609924316406
ell 719, elapsed: 0.0005109310150146484
ell 718, elapsed: 0.0004038810729980469
ell 717, elapsed: 0.0004909038543701172
ell 716, elapsed: 0.0004031658172607422
ell 715, elapsed: 0.0004949569702148438
ell 714, elapsed: 0.0004038810729980469
ell 713, elapsed: 0.0004911422729492188
ell 712, elapsed: 0.0003981590270996094
ell 711, elapsed: 0.000514984130859375
ell 710, elapsed: 0.00040411949157714844
ell 709, elapsed: 0.0005030632019042969
ell 708, elapsed: 0.0004010200500488281
ell 707, elapsed: 0.0004899501800537109
ell 706, elapsed: 0.0004019737243652344
ell 705, elapsed: 0.0004868507385253906
ell 704, elapsed: 0.0004031658172607422
ell 703, elapsed: 0.0005118846893310547
ell 702, elapsed: 0.0004000663757324219
ell 701, elapsed: 0.0005018711090087891
ell 700, elapsed: 0.0003998279571533203
ell 699, elapsed: 0.0004940032958984375
ell 698, elapsed: 0.0004029273986816406
ell 697, elapsed: 0.0005490779876708984
ell 696, elapsed: 0.0004119873046875
ell 695, elapsed: 0.00049591064453125
ell 694, elapsed: 0.0004069805145263672
ell 693, elapsed: 0.00048804283142089844
ell 692, elapsed: 0.0004057884216308594
ell 691, elapsed: 0.000537872314453125
ell 690, elapsed: 0.0003979206085205078
ell 689, elapsed: 0.0005080699920654297
ell 688, elapsed: 0.0004000663757324219
ell 687, elapsed: 0.00047516822814941406
ell 686, elapsed: 0.0004010200500488281
ell 685, elapsed: 0.00048089027404785156
ell 684, elapsed: 0.00039887428283691406
ell 683, elapsed: 0.0004930496215820312
ell 682, elapsed: 0.0004849433898925781
ell 681, elapsed: 0.0005309581756591797
ell 680, elapsed: 0.0004038810729980469
ell 679, elapsed: 0.00048804283142089844
ell 678, elapsed: 0.0004029273986816406
ell 677, elapsed: 0.00048804283142089844
ell 676, elapsed: 0.00040602684020996094
ell 675, elapsed: 0.0004799365997314453
ell 674, elapsed: 0.0004010200500488281
ell 673, elapsed: 0.0005791187286376953
ell 672, elapsed: 0.0003998279571533203
ell 671, elapsed: 0.0004889965057373047
ell 670, elapsed: 0.00039887428283691406
ell 669, elapsed: 0.0004849433898925781
ell 668, elapsed: 0.00040602684020996094
ell 667, elapsed: 0.0004839897155761719
ell 666, elapsed: 0.0004069805145263672
ell 665, elapsed: 0.00047516822814941406
ell 664, elapsed: 0.00041103363037109375
ell 663, elapsed: 0.0004909038543701172
ell 662, elapsed: 0.0004000663757324219
ell 661, elapsed: 0.0004940032958984375
ell 660, elapsed: 0.0004048347473144531
ell 659, elapsed: 0.0004971027374267578
ell 658, elapsed: 0.0004818439483642578
ell 657, elapsed: 0.0004978179931640625
ell 656, elapsed: 0.0003991127014160156
ell 655, elapsed: 0.0004858970642089844
ell 654, elapsed: 0.0004131793975830078
ell 653, elapsed: 0.0004940032958984375
ell 652, elapsed: 0.0004088878631591797
ell 651, elapsed: 0.0004830360412597656
ell 650, elapsed: 0.0015637874603271484
ell 649, elapsed: 0.0005130767822265625
ell 648, elapsed: 0.0004019737243652344
ell 647, elapsed: 0.0004839897155761719
ell 646, elapsed: 0.0004000663757324219
ell 645, elapsed: 0.00047898292541503906
ell 644, elapsed: 0.0003788471221923828
ell 643, elapsed: 0.004873991012573242
ell 642, elapsed: 0.0004429817199707031
ell 641, elapsed: 0.0005300045013427734
ell 640, elapsed: 0.00040078163146972656
ell 639, elapsed: 0.0004999637603759766
ell 638, elapsed: 0.0004100799560546875
ell 637, elapsed: 0.0004968643188476562
ell 636, elapsed: 0.000408172607421875
ell 635, elapsed: 0.0004830360412597656
ell 634, elapsed: 0.0004050731658935547
ell 633, elapsed: 0.00049591064453125
ell 632, elapsed: 0.00040602684020996094
ell 631, elapsed: 0.0004911422729492188
ell 630, elapsed: 0.00045418739318847656
ell 629, elapsed: 0.00048804283142089844
ell 628, elapsed: 0.0004038810729980469
ell 627, elapsed: 0.0004851818084716797
ell 626, elapsed: 0.00040793418884277344
ell 625, elapsed: 0.0004780292510986328
ell 624, elapsed: 0.0004038810729980469
ell 623, elapsed: 0.0004889965057373047
ell 622, elapsed: 0.00041413307189941406
ell 621, elapsed: 0.0004830360412597656
ell 620, elapsed: 0.0004019737243652344
ell 619, elapsed: 0.00048804283142089844
ell 618, elapsed: 0.0004029273986816406
ell 617, elapsed: 0.0004889965057373047
ell 616, elapsed: 0.0004050731658935547
ell 615, elapsed: 0.0004909038543701172
ell 614, elapsed: 0.0004119873046875
ell 613, elapsed: 0.00048804283142089844
ell 612, elapsed: 0.0004010200500488281
ell 611, elapsed: 0.00048804283142089844
ell 610, elapsed: 0.00040602684020996094
ell 609, elapsed: 0.0004889965057373047
ell 608, elapsed: 0.0004019737243652344
ell 607, elapsed: 0.0004889965057373047
ell 606, elapsed: 0.0004200935363769531
ell 605, elapsed: 0.0004961490631103516
ell 604, elapsed: 0.00041103363037109375
ell 603, elapsed: 0.00047898292541503906
ell 602, elapsed: 0.00040602684020996094
ell 601, elapsed: 0.0004949569702148438
ell 600, elapsed: 0.00040602684020996094
ell 599, elapsed: 0.0004889965057373047
ell 598, elapsed: 0.0004050731658935547
ell 597, elapsed: 0.0004868507385253906
ell 596, elapsed: 0.0004048347473144531
ell 595, elapsed: 0.0004858970642089844
ell 594, elapsed: 0.0004031658172607422
ell 593, elapsed: 0.0004801750183105469
ell 592, elapsed: 0.00040411949157714844
ell 591, elapsed: 0.0004940032958984375
ell 590, elapsed: 0.00040602684020996094
ell 589, elapsed: 0.000492095947265625
ell 588, elapsed: 0.0004069805145263672
ell 587, elapsed: 0.0004889965057373047
ell 586, elapsed: 0.0004010200500488281
ell 585, elapsed: 0.000492095947265625
ell 584, elapsed: 0.0004019737243652344
ell 583, elapsed: 0.0004999637603759766
ell 582, elapsed: 0.0004019737243652344
ell 581, elapsed: 0.0004878044128417969
ell 580, elapsed: 0.00040793418884277344
ell 579, elapsed: 0.0005021095275878906
ell 578, elapsed: 0.00037217140197753906
ell 577, elapsed: 0.000392913818359375
ell 576, elapsed: 0.0002899169921875
ell 575, elapsed: 0.0004260540008544922
ell 574, elapsed: 0.0004210472106933594
ell 573, elapsed: 0.0003600120544433594
ell 572, elapsed: 0.0002799034118652344
ell 571, elapsed: 0.00046896934509277344
ell 570, elapsed: 0.0003650188446044922
ell 569, elapsed: 0.0004639625549316406
ell 568, elapsed: 0.0003719329833984375
ell 567, elapsed: 0.0004630088806152344
ell 566, elapsed: 0.0004298686981201172
ell 565, elapsed: 0.0004630088806152344
ell 564, elapsed: 0.00037980079650878906
ell 563, elapsed: 0.0004658699035644531
ell 562, elapsed: 0.00036907196044921875
ell 561, elapsed: 0.0004620552062988281
ell 560, elapsed: 0.0003769397735595703
ell 559, elapsed: 0.0004601478576660156
ell 558, elapsed: 0.0003910064697265625
ell 557, elapsed: 0.00047898292541503906
ell 556, elapsed: 0.0003769397735595703
ell 555, elapsed: 0.0004699230194091797
ell 554, elapsed: 0.0003821849822998047
ell 553, elapsed: 0.000469207763671875
ell 552, elapsed: 0.00036978721618652344
ell 551, elapsed: 0.0004711151123046875
ell 550, elapsed: 0.0005619525909423828
ell 549, elapsed: 0.0005140304565429688
ell 548, elapsed: 0.0003647804260253906
ell 547, elapsed: 0.0004448890686035156
ell 546, elapsed: 0.00034999847412109375
ell 545, elapsed: 0.0004661083221435547
ell 544, elapsed: 0.0003769397735595703
ell 543, elapsed: 0.0004630088806152344
ell 542, elapsed: 0.0003910064697265625
ell 541, elapsed: 0.0004761219024658203
ell 540, elapsed: 0.00037384033203125
ell 539, elapsed: 0.000453948974609375
ell 538, elapsed: 0.0003688335418701172
ell 537, elapsed: 0.00047278404235839844
ell 536, elapsed: 0.00036597251892089844
ell 535, elapsed: 0.0004470348358154297
ell 534, elapsed: 0.0003650188446044922
ell 533, elapsed: 0.0005950927734375
ell 532, elapsed: 0.0004620552062988281
ell 531, elapsed: 0.00045680999755859375
ell 530, elapsed: 0.00035500526428222656
ell 529, elapsed: 0.0004200935363769531
ell 528, elapsed: 0.0004680156707763672
ell 527, elapsed: 0.0005829334259033203
ell 526, elapsed: 0.00046706199645996094
ell 525, elapsed: 0.0004649162292480469
ell 524, elapsed: 0.0003750324249267578
ell 523, elapsed: 0.0004630088806152344
ell 522, elapsed: 0.00037407875061035156
ell 521, elapsed: 0.00047016143798828125
ell 520, elapsed: 0.0003800392150878906
ell 519, elapsed: 0.00045990943908691406
ell 518, elapsed: 0.00038909912109375
ell 517, elapsed: 0.0004661083221435547
ell 516, elapsed: 0.00037384033203125
ell 515, elapsed: 0.00047516822814941406
ell 514, elapsed: 0.0003859996795654297
ell 513, elapsed: 0.0004711151123046875
ell 512, elapsed: 0.000370025634765625
ell 511, elapsed: 0.0004630088806152344
ell 510, elapsed: 0.0003809928894042969
ell 509, elapsed: 0.00045609474182128906
ell 508, elapsed: 0.00037097930908203125
ell 507, elapsed: 0.0004620552062988281
ell 506, elapsed: 0.00038313865661621094
ell 505, elapsed: 0.0004608631134033203
ell 504, elapsed: 0.0003790855407714844
ell 503, elapsed: 0.0004620552062988281
ell 502, elapsed: 0.0003790855407714844
ell 501, elapsed: 0.0004820823669433594
ell 500, elapsed: 0.0003838539123535156
ell 499, elapsed: 0.0004649162292480469
ell 498, elapsed: 0.00037479400634765625
ell 497, elapsed: 0.00045680999755859375
ell 496, elapsed: 0.0003650188446044922
ell 495, elapsed: 0.0004611015319824219
ell 494, elapsed: 0.0003719329833984375
ell 493, elapsed: 0.0004649162292480469
ell 492, elapsed: 0.0003769397735595703
ell 491, elapsed: 0.0004630088806152344
ell 490, elapsed: 0.00037288665771484375
ell 489, elapsed: 0.0004630088806152344
ell 488, elapsed: 0.00037097930908203125
ell 487, elapsed: 0.00045490264892578125
ell 486, elapsed: 0.00037288665771484375
ell 485, elapsed: 0.0004820823669433594
ell 484, elapsed: 0.00037384033203125
ell 483, elapsed: 0.00047397613525390625
ell 482, elapsed: 0.00037789344787597656
ell 481, elapsed: 0.0004642009735107422
ell 480, elapsed: 0.00036716461181640625
ell 479, elapsed: 0.0004608631134033203
ell 478, elapsed: 0.00037407875061035156
ell 477, elapsed: 0.0004630088806152344
ell 476, elapsed: 0.00037980079650878906
ell 475, elapsed: 0.00047397613525390625
ell 474, elapsed: 0.0003790855407714844
ell 473, elapsed: 0.0004639625549316406
ell 472, elapsed: 0.0003838539123535156
ell 471, elapsed: 0.0004611015319824219
ell 470, elapsed: 0.00037384033203125
ell 469, elapsed: 0.0004658699035644531
ell 468, elapsed: 0.0004429817199707031
ell 467, elapsed: 0.00044989585876464844
ell 466, elapsed: 0.0003311634063720703
ell 465, elapsed: 0.0004138946533203125
ell 464, elapsed: 0.0002789497375488281
ell 463, elapsed: 0.0004291534423828125
ell 462, elapsed: 0.0003750324249267578
ell 461, elapsed: 0.00039196014404296875
ell 460, elapsed: 0.0002560615539550781
ell 459, elapsed: 0.00045609474182128906
ell 458, elapsed: 0.00034809112548828125
ell 457, elapsed: 0.00045108795166015625
ell 456, elapsed: 0.00035500526428222656
ell 455, elapsed: 0.0004429817199707031
ell 454, elapsed: 0.0003769397735595703
ell 453, elapsed: 0.000453948974609375
ell 452, elapsed: 0.000370025634765625
ell 451, elapsed: 0.0007309913635253906
ell 450, elapsed: 0.0003941059112548828
ell 449, elapsed: 0.00046515464782714844
ell 448, elapsed: 0.00037097930908203125
ell 447, elapsed: 0.0004570484161376953
ell 446, elapsed: 0.0003731250762939453
ell 445, elapsed: 0.0004551410675048828
ell 444, elapsed: 0.00037217140197753906
ell 443, elapsed: 0.0005900859832763672
ell 442, elapsed: 0.0003771781921386719
ell 441, elapsed: 0.00045990943908691406
ell 440, elapsed: 0.000370025634765625
ell 439, elapsed: 0.0004630088806152344
ell 438, elapsed: 0.00036597251892089844
ell 437, elapsed: 0.00045800209045410156
ell 436, elapsed: 0.00037097930908203125
ell 435, elapsed: 0.0005440711975097656
ell 434, elapsed: 0.00037097930908203125
ell 433, elapsed: 0.0004630088806152344
ell 432, elapsed: 0.00036716461181640625
ell 431, elapsed: 0.0004570484161376953
ell 430, elapsed: 0.0003650188446044922
ell 429, elapsed: 0.0004570484161376953
ell 428, elapsed: 0.00036597251892089844
ell 427, elapsed: 0.0004591941833496094
ell 426, elapsed: 0.0004642009735107422
ell 425, elapsed: 0.00045680999755859375
ell 424, elapsed: 0.0003769397735595703
ell 423, elapsed: 0.000453948974609375
ell 422, elapsed: 0.0003669261932373047
ell 421, elapsed: 0.00044798851013183594
ell 420, elapsed: 0.0003790855407714844
ell 419, elapsed: 0.00045609474182128906
ell 418, elapsed: 0.000453948974609375
ell 417, elapsed: 0.00044989585876464844
ell 416, elapsed: 0.00036406517028808594
ell 415, elapsed: 0.00045108795166015625
ell 414, elapsed: 0.00036597251892089844
ell 413, elapsed: 0.0004589557647705078
ell 412, elapsed: 0.0003647804260253906
ell 411, elapsed: 0.000453948974609375
ell 410, elapsed: 0.0004630088806152344
ell 409, elapsed: 0.0004630088806152344
ell 408, elapsed: 0.00036907196044921875
ell 407, elapsed: 0.0004601478576660156
ell 406, elapsed: 0.0003800392150878906
ell 405, elapsed: 0.00045490264892578125
ell 404, elapsed: 0.0003669261932373047
ell 403, elapsed: 0.00047206878662109375
ell 402, elapsed: 0.0003509521484375
ell 401, elapsed: 0.0005881786346435547
ell 400, elapsed: 0.0004448890686035156
ell 399, elapsed: 0.0004608631134033203
ell 398, elapsed: 0.00036907196044921875
ell 397, elapsed: 0.00044798851013183594
ell 396, elapsed: 0.0003731250762939453
ell 395, elapsed: 0.00045180320739746094
ell 394, elapsed: 0.0004649162292480469
ell 393, elapsed: 0.0004830360412597656
ell 392, elapsed: 0.00036978721618652344
ell 391, elapsed: 0.0005669593811035156
ell 390, elapsed: 0.0005209445953369141
ell 389, elapsed: 0.000453948974609375
ell 388, elapsed: 0.00037407875061035156
ell 387, elapsed: 0.0004658699035644531
ell 386, elapsed: 0.00045990943908691406
ell 385, elapsed: 0.0004661083221435547
ell 384, elapsed: 0.0003750324249267578
ell 383, elapsed: 0.00045609474182128906
ell 382, elapsed: 0.00037217140197753906
ell 381, elapsed: 0.0006709098815917969
ell 380, elapsed: 0.00045108795166015625
ell 379, elapsed: 0.0005609989166259766
ell 378, elapsed: 0.0003731250762939453
ell 377, elapsed: 0.0005478858947753906
ell 376, elapsed: 0.0005040168762207031
ell 375, elapsed: 0.00045800209045410156
ell 374, elapsed: 0.00037407875061035156
ell 373, elapsed: 0.00045800209045410156
ell 372, elapsed: 0.00036907196044921875
ell 371, elapsed: 0.0006501674652099609
ell 370, elapsed: 0.00048089027404785156
ell 369, elapsed: 0.0004649162292480469
ell 368, elapsed: 0.0003731250762939453
ell 367, elapsed: 0.0004589557647705078
ell 366, elapsed: 0.0003750324249267578
ell 365, elapsed: 0.00046181678771972656
ell 364, elapsed: 0.00037097930908203125
ell 363, elapsed: 0.0006392002105712891
ell 362, elapsed: 0.0004909038543701172
ell 361, elapsed: 0.00045108795166015625
ell 360, elapsed: 0.00036716461181640625
ell 359, elapsed: 0.0004601478576660156
ell 358, elapsed: 0.0003731250762939453
ell 357, elapsed: 0.0004520416259765625
ell 356, elapsed: 0.00036787986755371094
ell 355, elapsed: 0.0004608631134033203
ell 354, elapsed: 0.00037288665771484375
ell 353, elapsed: 0.0004532337188720703
ell 352, elapsed: 0.0003681182861328125
ell 351, elapsed: 0.0004601478576660156
ell 350, elapsed: 0.00037288665771484375
ell 349, elapsed: 0.00046706199645996094
ell 348, elapsed: 0.0003719329833984375
ell 347, elapsed: 0.0005609989166259766
ell 346, elapsed: 0.0003790855407714844
ell 345, elapsed: 0.0004611015319824219
ell 344, elapsed: 0.000370025634765625
ell 343, elapsed: 0.0004620552062988281
ell 342, elapsed: 0.0003650188446044922
ell 341, elapsed: 0.00044798851013183594
ell 340, elapsed: 0.0003719329833984375
ell 339, elapsed: 0.0005412101745605469
ell 338, elapsed: 0.0003750324249267578
ell 337, elapsed: 0.0004520416259765625
ell 336, elapsed: 0.000370025634765625
ell 335, elapsed: 0.0004680156707763672
ell 334, elapsed: 0.0003669261932373047
ell 333, elapsed: 0.0004649162292480469
ell 332, elapsed: 0.00036597251892089844
ell 331, elapsed: 0.0005109310150146484
ell 330, elapsed: 0.00026297569274902344
ell 329, elapsed: 0.00031495094299316406
ell 328, elapsed: 0.0002510547637939453
ell 327, elapsed: 0.00032711029052734375
ell 326, elapsed: 0.00025200843811035156
ell 325, elapsed: 0.0003039836883544922
ell 324, elapsed: 0.00024890899658203125
ell 323, elapsed: 0.0003151893615722656
ell 322, elapsed: 0.00025200843811035156
ell 321, elapsed: 0.0003108978271484375
ell 320, elapsed: 0.0002849102020263672
ell 319, elapsed: 0.0004680156707763672
ell 318, elapsed: 0.0003681182861328125
ell 317, elapsed: 0.00047087669372558594
ell 316, elapsed: 0.00037217140197753906
ell 315, elapsed: 0.0006690025329589844
ell 314, elapsed: 0.00041604042053222656
ell 313, elapsed: 0.0004620552062988281
ell 312, elapsed: 0.0003771781921386719
ell 311, elapsed: 0.0004558563232421875
ell 310, elapsed: 0.0003681182861328125
ell 309, elapsed: 0.00045490264892578125
ell 308, elapsed: 0.0003750324249267578
ell 307, elapsed: 0.0004649162292480469
ell 306, elapsed: 0.0003750324249267578
ell 305, elapsed: 0.00045990943908691406
ell 304, elapsed: 0.0003898143768310547
ell 303, elapsed: 0.0008330345153808594
ell 302, elapsed: 0.0005109310150146484
ell 301, elapsed: 0.00047087669372558594
ell 300, elapsed: 0.0003790855407714844
ell 299, elapsed: 0.0004680156707763672
ell 298, elapsed: 0.0003781318664550781
ell 297, elapsed: 0.0004889965057373047
ell 296, elapsed: 0.0003848075866699219
ell 295, elapsed: 0.0005929470062255859
ell 294, elapsed: 0.0004558563232421875
ell 293, elapsed: 0.0004661083221435547
ell 292, elapsed: 0.0003840923309326172
ell 291, elapsed: 0.00047087669372558594
ell 290, elapsed: 0.0003809928894042969
ell 289, elapsed: 0.0004801750183105469
ell 288, elapsed: 0.0003840923309326172
ell 287, elapsed: 0.0004639625549316406
ell 286, elapsed: 0.0003800392150878906
ell 285, elapsed: 0.0004630088806152344
ell 284, elapsed: 0.0003731250762939453
ell 283, elapsed: 0.0004620552062988281
ell 282, elapsed: 0.0003750324249267578
ell 281, elapsed: 0.0004899501800537109
ell 280, elapsed: 0.0003840923309326172
ell 279, elapsed: 0.00047588348388671875
ell 278, elapsed: 0.0003838539123535156
ell 277, elapsed: 0.0004820823669433594
ell 276, elapsed: 0.0003819465637207031
ell 275, elapsed: 0.00047707557678222656
ell 274, elapsed: 0.0003790855407714844
ell 273, elapsed: 0.0006110668182373047
ell 272, elapsed: 0.0003800392150878906
ell 271, elapsed: 0.0004730224609375
ell 270, elapsed: 0.0003750324249267578
ell 269, elapsed: 0.0004639625549316406
ell 268, elapsed: 0.00037097930908203125
ell 267, elapsed: 0.0004649162292480469
ell 266, elapsed: 0.0003750324249267578
ell 265, elapsed: 0.0004830360412597656
ell 264, elapsed: 0.00037407875061035156
ell 263, elapsed: 0.0004611015319824219
ell 262, elapsed: 0.00037598609924316406
ell 261, elapsed: 0.0004608631134033203
ell 260, elapsed: 0.0003590583801269531
ell 259, elapsed: 0.0004639625549316406
ell 258, elapsed: 0.00036907196044921875
ell 257, elapsed: 0.0004889965057373047
ell 256, elapsed: 0.00036787986755371094
ell 255, elapsed: 0.0004680156707763672
ell 254, elapsed: 0.00037407875061035156
ell 253, elapsed: 0.0004470348358154297
ell 252, elapsed: 0.00036597251892089844
ell 251, elapsed: 0.0004570484161376953
ell 250, elapsed: 0.0003650188446044922
ell 249, elapsed: 0.0004611015319824219
ell 248, elapsed: 0.0003829002380371094
ell 247, elapsed: 0.00045800209045410156
ell 246, elapsed: 0.0003731250762939453
ell 245, elapsed: 0.00045990943908691406
ell 244, elapsed: 0.00037407875061035156
ell 243, elapsed: 0.0004570484161376953
ell 242, elapsed: 0.00036406517028808594
ell 241, elapsed: 0.00045800209045410156
ell 240, elapsed: 0.00039196014404296875
ell 239, elapsed: 0.00045299530029296875
ell 238, elapsed: 0.00037407875061035156
ell 237, elapsed: 0.0004630088806152344
ell 236, elapsed: 0.0003769397735595703
ell 235, elapsed: 0.00045800209045410156
ell 234, elapsed: 0.00037598609924316406
ell 233, elapsed: 0.0004391670227050781
ell 232, elapsed: 0.00045108795166015625
ell 231, elapsed: 0.0006020069122314453
ell 230, elapsed: 0.00037384033203125
ell 229, elapsed: 0.0006570816040039062
ell 228, elapsed: 0.00037598609924316406
ell 227, elapsed: 0.0004589557647705078
ell 226, elapsed: 0.00036907196044921875
ell 225, elapsed: 0.0004661083221435547
ell 224, elapsed: 0.00039386749267578125
ell 223, elapsed: 0.0004611015319824219
ell 222, elapsed: 0.00037407875061035156
ell 221, elapsed: 0.0004608631134033203
ell 220, elapsed: 0.00037407875061035156
ell 219, elapsed: 0.0004470348358154297
ell 218, elapsed: 0.00036787986755371094
ell 217, elapsed: 0.00046896934509277344
ell 216, elapsed: 0.00038886070251464844
ell 215, elapsed: 0.0004608631134033203
ell 214, elapsed: 0.0003800392150878906
ell 213, elapsed: 0.0004649162292480469
ell 212, elapsed: 0.0003819465637207031
ell 211, elapsed: 0.0004639625549316406
ell 210, elapsed: 0.00037598609924316406
ell 209, elapsed: 0.00046515464782714844
ell 208, elapsed: 0.00039505958557128906
ell 207, elapsed: 0.0004630088806152344
ell 206, elapsed: 0.0003800392150878906
ell 205, elapsed: 0.0004661083221435547
ell 204, elapsed: 0.0005369186401367188
ell 203, elapsed: 0.0005300045013427734
ell 202, elapsed: 0.0003590583801269531
ell 201, elapsed: 0.0006430149078369141
ell 200, elapsed: 0.00038504600524902344
ell 199, elapsed: 0.0004649162292480469
ell 198, elapsed: 0.00037479400634765625
ell 197, elapsed: 0.0004630088806152344
ell 196, elapsed: 0.0003790855407714844
ell 195, elapsed: 0.00045990943908691406
ell 194, elapsed: 0.0003809928894042969
ell 193, elapsed: 0.0004661083221435547
ell 192, elapsed: 0.00038504600524902344
ell 191, elapsed: 0.0004730224609375
ell 190, elapsed: 0.000370025634765625
ell 189, elapsed: 0.0004730224609375
ell 188, elapsed: 0.000370025634765625
ell 187, elapsed: 0.0004429817199707031
ell 186, elapsed: 0.0003829002380371094
ell 185, elapsed: 0.00045800209045410156
ell 184, elapsed: 0.00038814544677734375
ell 183, elapsed: 0.00045990943908691406
ell 182, elapsed: 0.0003788471221923828
ell 181, elapsed: 0.00045609474182128906
ell 180, elapsed: 0.0003719329833984375
ell 179, elapsed: 0.0004620552062988281
ell 178, elapsed: 0.00037598609924316406
ell 177, elapsed: 0.00045990943908691406
ell 176, elapsed: 0.00039505958557128906
ell 175, elapsed: 0.0004649162292480469
ell 174, elapsed: 0.0003809928894042969
ell 173, elapsed: 0.00047206878662109375
ell 172, elapsed: 0.00037097930908203125
ell 171, elapsed: 0.0004649162292480469
ell 170, elapsed: 0.0003731250762939453
ell 169, elapsed: 0.0004661083221435547
ell 168, elapsed: 0.0003669261932373047
ell 167, elapsed: 0.0004699230194091797
ell 166, elapsed: 0.0003731250762939453
ell 165, elapsed: 0.0004630088806152344
ell 164, elapsed: 0.00037288665771484375
ell 163, elapsed: 0.0004620552062988281
ell 162, elapsed: 0.0003719329833984375
ell 161, elapsed: 0.0004611015319824219
ell 160, elapsed: 0.00037097930908203125
ell 159, elapsed: 0.0004849433898925781
ell 158, elapsed: 0.0003750324249267578
ell 157, elapsed: 0.0004820823669433594
ell 156, elapsed: 0.0003800392150878906
ell 155, elapsed: 0.00046706199645996094
ell 154, elapsed: 0.0003790855407714844
ell 153, elapsed: 0.0004668235778808594
ell 152, elapsed: 0.000370025634765625
ell 151, elapsed: 0.0004889965057373047
ell 150, elapsed: 0.00037407875061035156
ell 149, elapsed: 0.00045108795166015625
ell 148, elapsed: 0.00036907196044921875
ell 147, elapsed: 0.0004608631134033203
ell 146, elapsed: 0.00037384033203125
ell 145, elapsed: 0.0004620552062988281
ell 144, elapsed: 0.00037598609924316406
ell 143, elapsed: 0.00047707557678222656
ell 142, elapsed: 0.0003750324249267578
ell 141, elapsed: 0.0004589557647705078
ell 140, elapsed: 0.00037097930908203125
ell 139, elapsed: 0.0004608631134033203
ell 138, elapsed: 0.0003750324249267578
ell 137, elapsed: 0.0005691051483154297
ell 136, elapsed: 0.0004849433898925781
ell 135, elapsed: 0.0004620552062988281
ell 134, elapsed: 0.00037384033203125
ell 133, elapsed: 0.00046706199645996094
ell 132, elapsed: 0.0003750324249267578
ell 131, elapsed: 0.0004680156707763672
ell 130, elapsed: 0.00051116943359375
ell 129, elapsed: 0.0005519390106201172
ell 128, elapsed: 0.0003750324249267578
ell 127, elapsed: 0.00047397613525390625
ell 126, elapsed: 0.0003750324249267578
ell 125, elapsed: 0.0004639625549316406
ell 124, elapsed: 0.0003750324249267578
ell 123, elapsed: 0.0004439353942871094
ell 122, elapsed: 0.00037288665771484375
ell 121, elapsed: 0.0004661083221435547
ell 120, elapsed: 0.0003800392150878906
ell 119, elapsed: 0.00047779083251953125
ell 118, elapsed: 0.0003790855407714844
ell 117, elapsed: 0.0004668235778808594
ell 116, elapsed: 0.00037288665771484375
ell 115, elapsed: 0.000469207763671875
ell 114, elapsed: 0.0003840923309326172
ell 113, elapsed: 0.0004639625549316406
ell 112, elapsed: 0.0003809928894042969
ell 111, elapsed: 0.00048613548278808594
ell 110, elapsed: 0.00037598609924316406
ell 109, elapsed: 0.00045108795166015625
ell 108, elapsed: 0.00038504600524902344
ell 107, elapsed: 0.0004620552062988281
ell 106, elapsed: 0.0004260540008544922
ell 105, elapsed: 0.0006120204925537109
ell 104, elapsed: 0.0003840923309326172
ell 103, elapsed: 0.0004811286926269531
ell 102, elapsed: 0.0003650188446044922
ell 101, elapsed: 0.0004630088806152344
ell 100, elapsed: 0.0003731250762939453
ell 99, elapsed: 0.0004658699035644531
ell 98, elapsed: 0.00037097930908203125
ell 97, elapsed: 0.0004601478576660156
ell 96, elapsed: 0.0003800392150878906
ell 95, elapsed: 0.00046896934509277344
ell 94, elapsed: 0.0003809928894042969
ell 93, elapsed: 0.0004661083221435547
ell 92, elapsed: 0.00037598609924316406
ell 91, elapsed: 0.0004749298095703125
ell 90, elapsed: 0.00037598609924316406
ell 89, elapsed: 0.00046706199645996094
ell 88, elapsed: 0.0003762245178222656
ell 87, elapsed: 0.00047278404235839844
ell 86, elapsed: 0.00037789344787597656
ell 85, elapsed: 0.00046706199645996094
ell 84, elapsed: 0.0003859996795654297
ell 83, elapsed: 0.0004589557647705078
ell 82, elapsed: 0.0003840923309326172
ell 81, elapsed: 0.00046706199645996094
ell 80, elapsed: 0.0003769397735595703
ell 79, elapsed: 0.0004680156707763672
ell 78, elapsed: 0.00037217140197753906
ell 77, elapsed: 0.0004680156707763672
ell 76, elapsed: 0.00037598609924316406
ell 75, elapsed: 0.00044989585876464844
ell 74, elapsed: 0.00037789344787597656
ell 73, elapsed: 0.0004570484161376953
ell 72, elapsed: 0.00037598609924316406
ell 71, elapsed: 0.0004620552062988281
ell 70, elapsed: 0.0018880367279052734
ell 69, elapsed: 0.0004661083221435547
ell 68, elapsed: 0.0003769397735595703
ell 67, elapsed: 0.0004711151123046875
ell 66, elapsed: 0.00037384033203125
ell 65, elapsed: 0.0004889965057373047
ell 64, elapsed: 0.00038886070251464844
ell 63, elapsed: 0.000469207763671875
ell 62, elapsed: 0.0003809928894042969
ell 61, elapsed: 0.00046706199645996094
ell 60, elapsed: 0.0003769397735595703
ell 59, elapsed: 0.00046706199645996094
ell 58, elapsed: 0.00037479400634765625
ell 57, elapsed: 0.0004830360412597656
ell 56, elapsed: 0.0003859996795654297
ell 55, elapsed: 0.00046896934509277344
ell 54, elapsed: 0.00038886070251464844
ell 53, elapsed: 0.0004761219024658203
ell 52, elapsed: 0.0003840923309326172
ell 51, elapsed: 0.0004658699035644531
ell 50, elapsed: 0.0003788471221923828
ell 49, elapsed: 0.0004930496215820312
ell 48, elapsed: 0.00037789344787597656
ell 47, elapsed: 0.00046706199645996094
ell 46, elapsed: 0.00037407875061035156
ell 45, elapsed: 0.00047206878662109375
ell 44, elapsed: 0.0003788471221923828
ell 43, elapsed: 0.0004630088806152344
ell 42, elapsed: 0.00037407875061035156
ell 41, elapsed: 0.00048804283142089844
ell 40, elapsed: 0.0003859996795654297
ell 39, elapsed: 0.00047707557678222656
ell 38, elapsed: 0.00039386749267578125
ell 37, elapsed: 0.0005550384521484375
ell 36, elapsed: 0.00038504600524902344
ell 35, elapsed: 0.00048613548278808594
ell 34, elapsed: 0.0003790855407714844
ell 33, elapsed: 0.0005440711975097656
ell 32, elapsed: 0.0003809928894042969
ell 31, elapsed: 0.0006139278411865234
ell 30, elapsed: 0.0004849433898925781
ell 29, elapsed: 0.0004639625549316406
ell 28, elapsed: 0.00045013427734375
ell 27, elapsed: 0.0006220340728759766
ell 26, elapsed: 0.000392913818359375
ell 25, elapsed: 0.0004620552062988281
ell 24, elapsed: 0.0003800392150878906
ell 23, elapsed: 0.0004570484161376953
ell 22, elapsed: 0.0003769397735595703
ell 21, elapsed: 0.00045800209045410156
ell 20, elapsed: 0.0003771781921386719
ell 19, elapsed: 0.00046896934509277344
ell 18, elapsed: 0.0003781318664550781
ell 17, elapsed: 0.00046896934509277344
ell 16, elapsed: 0.000392913818359375
ell 15, elapsed: 0.0004792213439941406
ell 14, elapsed: 0.0003781318664550781
ell 13, elapsed: 0.00047206878662109375
ell 12, elapsed: 0.0003800392150878906
ell 11, elapsed: 0.0004551410675048828
ell 10, elapsed: 0.0003821849822998047
ell 9, elapsed: 0.0004780292510986328
ell 8, elapsed: 0.00037407875061035156
ell 7, elapsed: 0.0006000995635986328
ell 6, elapsed: 0.00045013427734375
ell 5, elapsed: 0.0004699230194091797
ell 4, elapsed: 0.0003800392150878906
ell 3, elapsed: 0.00046896934509277344
ell 2, elapsed: 0.00039005279541015625
ell 1, elapsed: 0.00045800209045410156
ell 0, elapsed: 0.00036907196044921875
  0.628675 seconds (57.02 k allocations: 2.784 MiB)
elapsed: 0.0005710124969482422
step:          0.07061 sec (0 allocations: 0 byte, 0.0% gc time)
swapping:      0.000876 sec (0 allocations: 0 byte, 0.0% gc time)
calc_Mellell!: 0.008583 sec (0 allocations: 0 byte, 0.0% gc time)
  t0 :  0.002562 sec (0 allocations: 0 byte, 0.0% gc time)
  tm2 : 0.089459 sec (0 allocations: 0 byte, 0.0% gc time)
  tm2s: 0.001953 sec (0 allocations: 0 byte, 0.0% gc time)
  tm4 : 0.234245 sec (0 allocations: 0 byte, 0.0% gc time)
  tp2 : 0.0 sec (0 allocations: 0 byte, 0.0% gc time)
  tp2s: 0.0 sec (0 allocations: 0 byte, 0.0% gc time)
  tp4 : 0.0 sec (0 allocations: 0 byte, 0.0% gc time)
calc_wtdll!:   0.348176 sec (9.879 k allocations: 1.044 MB, 0.0% gc time)
calc_wljj!:    0.038748 sec (689 allocations: 10.766 KB, 0.0% gc time)
mult_prefac!:  0.0 sec (0 allocations: 0 byte, 0.0% gc time)
convert:       0.0 sec (0 allocations: 0 byte, 0.0% gc time)
write:         0.057811 sec (0 allocations: 0 byte, 0.0% gc time)
test_rand_2f1: 0.0 sec (0 allocations: 0 byte, 0.0% gc time)
Closing outfile out/Ml21-cache.bin...   0.022064 seconds
  0.000287 seconds (52 allocations: 28.297 KiB)
make_phi():   0.002355 seconds (8.20 k allocations: 238.016 KiB)
  0.200907 seconds (146.69 k allocations: 3.629 MiB)
tskip:       0.000933 sec (0 allocations: 0 byte, 0.0% gc time)
tread:       0.025927 sec (20 allocations: 10.703 KB, 0.0% gc time)
tmultphi:    0.013345 sec (0 allocations: 0 byte, 0.0% gc time)
tbrfft:      0.061122 sec (9.592 k allocations: 449.625 KB, 0.0% gc time)
tmultprefac: 0.031423 sec (0 allocations: 0 byte, 0.0% gc time)
toutfunc:    0.066095 sec (129.905 k allocations: 2.421 MB, 0.0% gc time)
Testing R=1.0 ... passed
Calculating fmax: 
  dlrec    = 4
  dlrecRg1 = -4
  q=1.1, R=0.9:	  0.688253 seconds (149.41 k allocations: 69.863 MiB, 8.06% gc time)

  0.688527 seconds (149.47 k allocations: 69.895 MiB, 8.06% gc time)
ℓ = 1202
Δℓ = 4
ΔℓRg1 = -4
N = 1600
q = 1.1
kmin = 1.0e-5
kmax = 100000.00000000004
χ0 = 0.023029999999999995
RR = RR.tsv
ℓmax = ℓmax.bin
f21 = f21.bin
kmin = 1.0e-5
kmax = 100000.0
dlrec    = 4
dlrecRg1 = -4
Output size: 5741568 bytes = 0.005347251892089844 GiB
Output size: 51264 bytes = 4.774332046508789e-5 GiB
Reading 'out/F21EllCache'...   0.001144 seconds (271 allocations: 84.719 KiB)
ellmax: 1202
lmaxcache: 1202
fell[:,1,1] = Complex{Float64}[1.3482014726274674e-57 - 3.302141236118086e-73im, 1.357860004724329e-57 - 3.3257978169518355e-73im]
ell 1202, elapsed: 2.6941299438476562e-5
ell 1201, elapsed: 0.0004820823669433594
ell 1200, elapsed: 0.0005140304565429688
ell 1199, elapsed: 0.0006191730499267578
ell 1198, elapsed: 0.0004360675811767578
ell 1002, elapsed: 0.02155613899230957
ell 1001, elapsed: 0.0005021095275878906
ell 1000, elapsed: 0.0005898475646972656
ell 999, elapsed: 0.0005171298980712891
ell 998, elapsed: 0.000637054443359375
ell 902, elapsed: 0.006597042083740234
ell 901, elapsed: 0.0005741119384765625
ell 900, elapsed: 0.0005269050598144531
ell 899, elapsed: 0.0004029273986816406
ell 898, elapsed: 0.0004849433898925781
ell 802, elapsed: 0.0054547786712646484
ell 801, elapsed: 0.0044329166412353516
ell 800, elapsed: 0.0003409385681152344
ell 799, elapsed: 0.0003399848937988281
ell 798, elapsed: 0.0003268718719482422
ell 702, elapsed: 0.005027055740356445
ell 701, elapsed: 0.0003559589385986328
ell 700, elapsed: 0.0003349781036376953
ell 699, elapsed: 0.0003368854522705078
ell 698, elapsed: 0.00039696693420410156
ell 602, elapsed: 0.005063056945800781
ell 601, elapsed: 0.0004858970642089844
ell 600, elapsed: 0.0005168914794921875
ell 599, elapsed: 0.00045108795166015625
ell 598, elapsed: 0.00033092498779296875
ell 502, elapsed: 0.0053899288177490234
ell 501, elapsed: 0.0003631114959716797
ell 500, elapsed: 0.00032806396484375
ell 499, elapsed: 0.00032806396484375
ell 498, elapsed: 0.00032401084899902344
ell 402, elapsed: 0.005561113357543945
ell 401, elapsed: 0.0003459453582763672
ell 400, elapsed: 0.00033402442932128906
ell 399, elapsed: 0.00043082237243652344
ell 398, elapsed: 0.00047898292541503906
ell 302, elapsed: 0.004828929901123047
ell 301, elapsed: 0.0003509521484375
ell 300, elapsed: 0.0004050731658935547
ell 299, elapsed: 0.0005400180816650391
ell 298, elapsed: 0.0005190372467041016
ell 202, elapsed: 0.006123065948486328
ell 201, elapsed: 0.00035500526428222656
ell 200, elapsed: 0.00032591819763183594
ell 199, elapsed: 0.00032782554626464844
ell 198, elapsed: 0.0003287792205810547
ell 152, elapsed: 0.0025949478149414062
ell 151, elapsed: 0.00040793418884277344
ell 150, elapsed: 0.0005228519439697266
ell 149, elapsed: 0.0004830360412597656
ell 148, elapsed: 0.00046896934509277344
ell 127, elapsed: 0.0017180442810058594
ell 126, elapsed: 0.0003371238708496094
ell 125, elapsed: 0.0003459453582763672
ell 124, elapsed: 0.0004291534423828125
ell 123, elapsed: 0.0005221366882324219
ell 114, elapsed: 0.0009098052978515625
ell 113, elapsed: 0.0003299713134765625
ell 112, elapsed: 0.00043582916259765625
ell 111, elapsed: 0.00045490264892578125
ell 110, elapsed: 0.00033402442932128906
ell 102, elapsed: 0.0008590221405029297
ell 101, elapsed: 0.0003311634063720703
ell 100, elapsed: 0.00032401084899902344
ell 99, elapsed: 0.0003268718719482422
ell 98, elapsed: 0.0004520416259765625
ell 97, elapsed: 0.00048279762268066406
ell 96, elapsed: 0.0005681514739990234
ell 95, elapsed: 0.0003750324249267578
ell 94, elapsed: 0.00045490264892578125
ell 93, elapsed: 0.00048804283142089844
ell 92, elapsed: 0.0006041526794433594
ell 91, elapsed: 0.0003800392150878906
ell 90, elapsed: 0.00045800209045410156
ell 89, elapsed: 0.00037384033203125
ell 88, elapsed: 0.0005419254302978516
ell 87, elapsed: 0.0003669261932373047
ell 86, elapsed: 0.0004489421844482422
ell 85, elapsed: 0.000370025634765625
ell 84, elapsed: 0.0006380081176757812
ell 83, elapsed: 0.0005159378051757812
ell 82, elapsed: 0.0006258487701416016
ell 81, elapsed: 0.00047087669372558594
ell 80, elapsed: 0.0004620552062988281
ell 79, elapsed: 0.0003669261932373047
ell 78, elapsed: 0.0006029605865478516
ell 77, elapsed: 0.0004379749298095703
ell 76, elapsed: 0.0004401206970214844
ell 75, elapsed: 0.0003681182861328125
ell 74, elapsed: 0.000453948974609375
ell 73, elapsed: 0.0005660057067871094
ell 72, elapsed: 0.0006079673767089844
ell 71, elapsed: 0.00037789344787597656
ell 70, elapsed: 0.0004467964172363281
ell 69, elapsed: 0.00036215782165527344
ell 68, elapsed: 0.0004429817199707031
ell 67, elapsed: 0.0003800392150878906
ell 66, elapsed: 0.0007801055908203125
ell 65, elapsed: 0.0004019737243652344
ell 64, elapsed: 0.00045013427734375
ell 63, elapsed: 0.0003688335418701172
ell 62, elapsed: 0.00045013427734375
ell 61, elapsed: 0.0003719329833984375
ell 60, elapsed: 0.0004601478576660156
ell 59, elapsed: 0.00036716461181640625
ell 58, elapsed: 0.0007369518280029297
ell 57, elapsed: 0.0003910064697265625
ell 56, elapsed: 0.0005910396575927734
ell 55, elapsed: 0.0004818439483642578
ell 54, elapsed: 0.00044608116149902344
ell 53, elapsed: 0.0004909038543701172
ell 52, elapsed: 0.0005650520324707031
ell 51, elapsed: 0.0004799365997314453
ell 50, elapsed: 0.0004520416259765625
ell 49, elapsed: 0.0003662109375
ell 48, elapsed: 0.0006530284881591797
ell 47, elapsed: 0.00041604042053222656
ell 46, elapsed: 0.0004429817199707031
ell 45, elapsed: 0.00036907196044921875
ell 44, elapsed: 0.0004429817199707031
ell 43, elapsed: 0.0003688335418701172
ell 42, elapsed: 0.0004620552062988281
ell 41, elapsed: 0.0003829002380371094
ell 40, elapsed: 0.0004520416259765625
ell 39, elapsed: 0.0003688335418701172
ell 38, elapsed: 0.00045108795166015625
ell 37, elapsed: 0.0003838539123535156
ell 36, elapsed: 0.0007839202880859375
ell 35, elapsed: 0.0003750324249267578
ell 34, elapsed: 0.0004420280456542969
ell 33, elapsed: 0.000370025634765625
ell 32, elapsed: 0.0006411075592041016
ell 31, elapsed: 0.00039696693420410156
ell 30, elapsed: 0.00044798851013183594
ell 29, elapsed: 0.000370025634765625
ell 28, elapsed: 0.0005519390106201172
ell 27, elapsed: 0.000370025634765625
ell 26, elapsed: 0.000553131103515625
ell 25, elapsed: 0.0004940032958984375
ell 24, elapsed: 0.0005710124969482422
ell 23, elapsed: 0.0004961490631103516
ell 22, elapsed: 0.0005528926849365234
ell 21, elapsed: 0.0005578994750976562
ell 20, elapsed: 0.0004611015319824219
ell 19, elapsed: 0.00036716461181640625
ell 18, elapsed: 0.00045299530029296875
ell 17, elapsed: 0.00036907196044921875
ell 16, elapsed: 0.0005660057067871094
ell 15, elapsed: 0.00048089027404785156
ell 14, elapsed: 0.0007431507110595703
ell 13, elapsed: 0.0004839897155761719
ell 12, elapsed: 0.0006971359252929688
ell 11, elapsed: 0.0004429817199707031
ell 10, elapsed: 0.0005688667297363281
ell 9, elapsed: 0.00047588348388671875
ell 8, elapsed: 0.0006051063537597656
ell 7, elapsed: 0.00047206878662109375
ell 6, elapsed: 0.0007081031799316406
ell 5, elapsed: 0.0004038810729980469
ell 4, elapsed: 0.0005869865417480469
ell 3, elapsed: 0.0004520416259765625
ell 2, elapsed: 0.0004601478576660156
ell 1, elapsed: 0.0004661083221435547
ell 0, elapsed: 0.00055694580078125
  0.158804 seconds (13.00 k allocations: 675.094 KiB)
elapsed: 0.0006089210510253906
step:          0.073261 sec (0 allocations: 0 byte, 0.0% gc time)
swapping:      0.000563 sec (0 allocations: 0 byte, 0.0% gc time)
calc_Mellell!: 0.00146 sec (0 allocations: 0 byte, 0.0% gc time)
  t0 :  0.00038 sec (0 allocations: 0 byte, 0.0% gc time)
  tm2 : 0.013763 sec (0 allocations: 0 byte, 0.0% gc time)
  tm2s: 0.00032 sec (0 allocations: 0 byte, 0.0% gc time)
  tm4 : 0.04058 sec (0 allocations: 0 byte, 0.0% gc time)
  tp2 : 0.0 sec (0 allocations: 0 byte, 0.0% gc time)
  tp2s: 0.0 sec (0 allocations: 0 byte, 0.0% gc time)
  tp4 : 0.0 sec (0 allocations: 0 byte, 0.0% gc time)
calc_wtdll!:   0.055609 sec (1.344 k allocations: 147.0 KB, 0.0% gc time)
calc_wljj!:    0.004672 sec (6 allocations: 96 byte, 0.0% gc time)
mult_prefac!:  0.0 sec (0 allocations: 0 byte, 0.0% gc time)
convert:       0.0 sec (0 allocations: 0 byte, 0.0% gc time)
write:         0.006028 sec (0 allocations: 0 byte, 0.0% gc time)
test_rand_2f1: 0.0 sec (0 allocations: 0 byte, 0.0% gc time)
Closing outfile out/Ml21-cache.bin...   0.003145 seconds
  0.000341 seconds (52 allocations: 28.297 KiB)
make_phi():   0.002531 seconds (8.20 k allocations: 238.016 KiB)
  0.017152 seconds (12.10 k allocations: 322.000 KiB)
tskip:       2.1e-5 sec (0 allocations: 0 byte, 0.0% gc time)
tread:       0.002229 sec (20 allocations: 2.188 KB, 0.0% gc time)
tmultphi:    0.001358 sec (0 allocations: 0 byte, 0.0% gc time)
tbrfft:      0.005181 sec (896 allocations: 42.0 KB, 0.0% gc time)
tmultprefac: 0.003239 sec (0 allocations: 0 byte, 0.0% gc time)
toutfunc:    0.005037 sec (10.528 k allocations: 206.5 KB, 0.0% gc time)
Testing R=0.9 ... passed
Calculating fmax: 
  dlrec    = 4
  dlrecRg1 = -4
  q=1.1, R=0.8:	  0.534908 seconds (145.59 k allocations: 68.095 MiB, 1.73% gc time)

  0.535133 seconds (145.66 k allocations: 68.127 MiB, 1.73% gc time)
ℓ = 1202
Δℓ = 4
ΔℓRg1 = -4
N = 1600
q = 1.1
kmin = 1.0e-5
kmax = 100000.00000000004
χ0 = 0.023029999999999995
RR = RR.tsv
ℓmax = ℓmax.bin
f21 = f21.bin
kmin = 1.0e-5
kmax = 100000.0
dlrec    = 4
dlrecRg1 = -4
Output size: 5741568 bytes = 0.005347251892089844 GiB
Output size: 51264 bytes = 4.774332046508789e-5 GiB
Reading 'out/F21EllCache'...   0.000974 seconds (271 allocations: 84.719 KiB)
ellmax: 1202
lmaxcache: 1202
fell[:,1,1] = Complex{Float64}[7.519068145690986e-120 - 1.8416405474382574e-135im, 7.541664537386155e-120 - 1.847175067190611e-135im]
ell 1202, elapsed: 1.9073486328125e-5
ell 1201, elapsed: 0.00034308433532714844
ell 1200, elapsed: 0.0003230571746826172
ell 1199, elapsed: 0.002576112747192383
ell 1198, elapsed: 0.00039386749267578125
ell 1002, elapsed: 0.009938955307006836
ell 1001, elapsed: 0.0003561973571777344
ell 1000, elapsed: 0.00032591819763183594
ell 999, elapsed: 0.00032401084899902344
ell 998, elapsed: 0.0003268718719482422
ell 902, elapsed: 0.005224943161010742
ell 901, elapsed: 0.0005061626434326172
ell 900, elapsed: 0.0004038810729980469
ell 899, elapsed: 0.00034499168395996094
ell 898, elapsed: 0.0005350112915039062
ell 802, elapsed: 0.005321025848388672
ell 801, elapsed: 0.000453948974609375
ell 800, elapsed: 0.0003829002380371094
ell 799, elapsed: 0.0005059242248535156
ell 798, elapsed: 0.0003380775451660156
ell 702, elapsed: 0.005550861358642578
ell 701, elapsed: 0.0004520416259765625
ell 700, elapsed: 0.0005860328674316406
ell 699, elapsed: 0.00045990943908691406
ell 698, elapsed: 0.00046896934509277344
ell 602, elapsed: 0.0053369998931884766
ell 601, elapsed: 0.0004630088806152344
ell 600, elapsed: 0.0005178451538085938
ell 599, elapsed: 0.00045800209045410156
ell 598, elapsed: 0.00042891502380371094
ell 502, elapsed: 0.005285978317260742
ell 501, elapsed: 0.0004260540008544922
ell 500, elapsed: 0.0004839897155761719
ell 499, elapsed: 0.00042510032653808594
ell 498, elapsed: 0.0005080699920654297
ell 402, elapsed: 0.005327939987182617
ell 401, elapsed: 0.00034689903259277344
ell 400, elapsed: 0.00032806396484375
ell 399, elapsed: 0.00032806396484375
ell 398, elapsed: 0.0003330707550048828
ell 302, elapsed: 0.00551295280456543
ell 301, elapsed: 0.0003440380096435547
ell 300, elapsed: 0.0003228187561035156
ell 299, elapsed: 0.0003249645233154297
ell 298, elapsed: 0.0004589557647705078
ell 202, elapsed: 0.005233049392700195
ell 201, elapsed: 0.0003790855407714844
ell 200, elapsed: 0.00034689903259277344
ell 199, elapsed: 0.0003299713134765625
ell 198, elapsed: 0.0003299713134765625
ell 152, elapsed: 0.0027170181274414062
ell 151, elapsed: 0.0003337860107421875
ell 150, elapsed: 0.00032401084899902344
ell 149, elapsed: 0.0003459453582763672
ell 148, elapsed: 0.00033783912658691406
ell 127, elapsed: 0.0015311241149902344
ell 126, elapsed: 0.0005960464477539062
ell 125, elapsed: 0.00046896934509277344
ell 124, elapsed: 0.00033211708068847656
ell 123, elapsed: 0.00032591819763183594
ell 114, elapsed: 0.0007929801940917969
ell 113, elapsed: 0.00032806396484375
ell 112, elapsed: 0.0003230571746826172
ell 111, elapsed: 0.00032591819763183594
ell 110, elapsed: 0.0004401206970214844
ell 102, elapsed: 0.0008399486541748047
ell 101, elapsed: 0.0003330707550048828
ell 100, elapsed: 0.00032901763916015625
ell 99, elapsed: 0.00032806396484375
ell 98, elapsed: 0.0003781318664550781
ell 97, elapsed: 0.0005497932434082031
ell 96, elapsed: 0.00047397613525390625
ell 95, elapsed: 0.0005180835723876953
ell 94, elapsed: 0.0004639625549316406
ell 93, elapsed: 0.0003790855407714844
ell 92, elapsed: 0.0004570484161376953
ell 91, elapsed: 0.0003662109375
ell 90, elapsed: 0.0004379749298095703
ell 89, elapsed: 0.0003771781921386719
ell 88, elapsed: 0.0004420280456542969
ell 87, elapsed: 0.00036907196044921875
ell 86, elapsed: 0.0004601478576660156
ell 85, elapsed: 0.00036597251892089844
ell 84, elapsed: 0.0004429817199707031
ell 83, elapsed: 0.00043582916259765625
ell 82, elapsed: 0.0006189346313476562
ell 81, elapsed: 0.0005209445953369141
ell 80, elapsed: 0.0005779266357421875
ell 79, elapsed: 0.0004391670227050781
ell 78, elapsed: 0.0006120204925537109
ell 77, elapsed: 0.0003662109375
ell 76, elapsed: 0.0005600452423095703
ell 75, elapsed: 0.0004839897155761719
ell 74, elapsed: 0.0005300045013427734
ell 73, elapsed: 0.0006451606750488281
ell 72, elapsed: 0.0006649494171142578
ell 71, elapsed: 0.00043201446533203125
ell 70, elapsed: 0.0005500316619873047
ell 69, elapsed: 0.0004761219024658203
ell 68, elapsed: 0.00044798851013183594
ell 67, elapsed: 0.0003681182861328125
ell 66, elapsed: 0.00045680999755859375
[...]
ell 782, elapsed: 0.0013768672943115234
ell 781, elapsed: 0.0009348392486572266
ell 780, elapsed: 0.0007920265197753906
ell 779, elapsed: 0.0007879734039306641
ell 778, elapsed: 0.0007920265197753906
ell 772, elapsed: 0.0018091201782226562
ell 771, elapsed: 0.0007169246673583984
ell 770, elapsed: 0.0006868839263916016
ell 769, elapsed: 0.00074005126953125
ell 768, elapsed: 0.0006859302520751953
ell 762, elapsed: 0.0016460418701171875
ell 761, elapsed: 0.0006899833679199219
ell 760, elapsed: 0.0007429122924804688
ell 759, elapsed: 0.00067901611328125
ell 758, elapsed: 0.0007309913635253906
ell 752, elapsed: 0.0013551712036132812
ell 751, elapsed: 0.0007488727569580078
ell 750, elapsed: 0.0006809234619140625
ell 749, elapsed: 0.0008509159088134766
ell 748, elapsed: 0.0006909370422363281
ell 742, elapsed: 0.0013461112976074219
ell 741, elapsed: 0.0006849765777587891
ell 740, elapsed: 0.0008540153503417969
ell 739, elapsed: 0.0006821155548095703
ell 738, elapsed: 0.0006990432739257812
ell 732, elapsed: 0.0013399124145507812
ell 731, elapsed: 0.0007190704345703125
ell 730, elapsed: 0.0008060932159423828
ell 729, elapsed: 0.0007259845733642578
ell 728, elapsed: 0.0006837844848632812
ell 722, elapsed: 0.001378774642944336
ell 721, elapsed: 0.0008800029754638672
ell 720, elapsed: 0.0007529258728027344
ell 719, elapsed: 0.0007410049438476562
ell 718, elapsed: 0.0007441043853759766
ell 712, elapsed: 0.0018510818481445312
ell 711, elapsed: 0.0006949901580810547
ell 710, elapsed: 0.0007021427154541016
ell 709, elapsed: 0.000701904296875
ell 708, elapsed: 0.0006868839263916016
ell 702, elapsed: 0.001577138900756836
ell 701, elapsed: 0.0007472038269042969
ell 700, elapsed: 0.0006840229034423828
ell 699, elapsed: 0.0007140636444091797
ell 698, elapsed: 0.0007131099700927734
ell 692, elapsed: 0.001374959945678711
ell 691, elapsed: 0.00067901611328125
ell 690, elapsed: 0.0007369518280029297
ell 689, elapsed: 0.0008699893951416016
ell 688, elapsed: 0.0007510185241699219
ell 682, elapsed: 0.0013301372528076172
ell 681, elapsed: 0.0007300376892089844
ell 680, elapsed: 0.0007889270782470703
ell 679, elapsed: 0.0007290840148925781
ell 678, elapsed: 0.0006861686706542969
ell 672, elapsed: 0.0013599395751953125
ell 671, elapsed: 0.0007600784301757812
ell 670, elapsed: 0.0007741451263427734
ell 669, elapsed: 0.0007200241088867188
ell 668, elapsed: 0.0007429122924804688
ell 662, elapsed: 0.0016150474548339844
ell 661, elapsed: 0.0006921291351318359
ell 660, elapsed: 0.0007300376892089844
ell 659, elapsed: 0.0006880760192871094
ell 658, elapsed: 0.0006880760192871094
ell 652, elapsed: 0.0014810562133789062
ell 651, elapsed: 0.0007500648498535156
ell 650, elapsed: 0.0006849765777587891
ell 649, elapsed: 0.0007181167602539062
ell 648, elapsed: 0.0006961822509765625
ell 642, elapsed: 0.0014710426330566406
ell 641, elapsed: 0.0006849765777587891
ell 640, elapsed: 0.0007328987121582031
ell 639, elapsed: 0.0006768703460693359
ell 638, elapsed: 0.0009062290191650391
ell 632, elapsed: 0.0013790130615234375
ell 631, elapsed: 0.0007119178771972656
ell 630, elapsed: 0.0006859302520751953
ell 629, elapsed: 0.0007350444793701172
ell 628, elapsed: 0.0006818771362304688
ell 622, elapsed: 0.0013608932495117188
ell 621, elapsed: 0.0006818771362304688
ell 620, elapsed: 0.0007379055023193359
ell 619, elapsed: 0.0006821155548095703
ell 618, elapsed: 0.0008749961853027344
ell 612, elapsed: 0.001363992691040039
ell 611, elapsed: 0.0006937980651855469
ell 610, elapsed: 0.000698089599609375
ell 609, elapsed: 0.0007190704345703125
ell 608, elapsed: 0.0006811618804931641
ell 602, elapsed: 0.001383066177368164
ell 601, elapsed: 0.0008349418640136719
ell 600, elapsed: 0.000698089599609375
ell 599, elapsed: 0.0006911754608154297
ell 598, elapsed: 0.0007369518280029297
ell 592, elapsed: 0.0014810562133789062
ell 591, elapsed: 0.0006928443908691406
ell 590, elapsed: 0.0007269382476806641
ell 589, elapsed: 0.000698089599609375
ell 588, elapsed: 0.0006818771362304688
ell 582, elapsed: 0.0015251636505126953
ell 581, elapsed: 0.000759124755859375
ell 580, elapsed: 0.0006940364837646484
ell 579, elapsed: 0.00074005126953125
ell 578, elapsed: 0.0007588863372802734
ell 572, elapsed: 0.0014050006866455078
ell 571, elapsed: 0.0006949901580810547
ell 570, elapsed: 0.0007388591766357422
ell 569, elapsed: 0.0006878376007080078
ell 568, elapsed: 0.0008788108825683594
ell 562, elapsed: 0.0013370513916015625
ell 561, elapsed: 0.0007128715515136719
ell 560, elapsed: 0.0006921291351318359
ell 559, elapsed: 0.000904083251953125
ell 558, elapsed: 0.0006930828094482422
ell 552, elapsed: 0.0013659000396728516
ell 551, elapsed: 0.0007181167602539062
ell 550, elapsed: 0.000823974609375
ell 549, elapsed: 0.0006999969482421875
ell 548, elapsed: 0.0007078647613525391
ell 542, elapsed: 0.0013668537139892578
ell 541, elapsed: 0.0008177757263183594
ell 540, elapsed: 0.0007271766662597656
ell 539, elapsed: 0.00067901611328125
ell 538, elapsed: 0.0006959438323974609
ell 532, elapsed: 0.0013499259948730469
ell 531, elapsed: 0.0007419586181640625
ell 530, elapsed: 0.0006849765777587891
ell 529, elapsed: 0.0007259845733642578
ell 528, elapsed: 0.0006868839263916016
ell 522, elapsed: 0.0015828609466552734
ell 521, elapsed: 0.0006918907165527344
ell 520, elapsed: 0.0007309913635253906
ell 519, elapsed: 0.0006761550903320312
ell 518, elapsed: 0.0007319450378417969
ell 512, elapsed: 0.0014469623565673828
ell 511, elapsed: 0.0006999969482421875
ell 510, elapsed: 0.0006809234619140625
ell 509, elapsed: 0.0007231235504150391
ell 508, elapsed: 0.0008161067962646484
ell 502, elapsed: 0.0013608932495117188
ell 501, elapsed: 0.0007100105285644531
ell 500, elapsed: 0.0007059574127197266
ell 499, elapsed: 0.00080108642578125
ell 498, elapsed: 0.0007288455963134766
ell 492, elapsed: 0.0013539791107177734
ell 491, elapsed: 0.0006809234619140625
ell 490, elapsed: 0.0006890296936035156
ell 489, elapsed: 0.0009160041809082031
ell 488, elapsed: 0.000698089599609375
ell 482, elapsed: 0.00138092041015625
ell 481, elapsed: 0.0007369518280029297
ell 480, elapsed: 0.0008778572082519531
ell 479, elapsed: 0.0007381439208984375
ell 478, elapsed: 0.0006871223449707031
ell 472, elapsed: 0.0013949871063232422
ell 471, elapsed: 0.0008080005645751953
ell 470, elapsed: 0.0007369518280029297
ell 469, elapsed: 0.000682830810546875
ell 468, elapsed: 0.0007309913635253906
ell 462, elapsed: 0.0014882087707519531
ell 461, elapsed: 0.000720977783203125
ell 460, elapsed: 0.0006859302520751953
ell 459, elapsed: 0.0007262229919433594
ell 458, elapsed: 0.0006849765777587891
ell 452, elapsed: 0.0015079975128173828
ell 451, elapsed: 0.0006859302520751953
ell 450, elapsed: 0.0007231235504150391
ell 449, elapsed: 0.0006849765777587891
ell 448, elapsed: 0.0008718967437744141
ell 442, elapsed: 0.0013630390167236328
ell 441, elapsed: 0.0006968975067138672
ell 440, elapsed: 0.0006890296936035156
ell 439, elapsed: 0.0007231235504150391
ell 438, elapsed: 0.0006918907165527344
ell 432, elapsed: 0.0013780593872070312
ell 431, elapsed: 0.0007290840148925781
ell 430, elapsed: 0.0006949901580810547
ell 429, elapsed: 0.0009160041809082031
ell 428, elapsed: 0.0007028579711914062
ell 422, elapsed: 0.0013918876647949219
ell 421, elapsed: 0.0006859302520751953
ell 420, elapsed: 0.0009372234344482422
ell 419, elapsed: 0.0006849765777587891
ell 418, elapsed: 0.0007288455963134766
ell 412, elapsed: 0.0013170242309570312
ell 411, elapsed: 0.0008428096771240234
ell 410, elapsed: 0.0006868839263916016
ell 409, elapsed: 0.0007309913635253906
ell 408, elapsed: 0.0006859302520751953
ell 402, elapsed: 0.0015139579772949219
ell 401, elapsed: 0.0007040500640869141
ell 400, elapsed: 0.0007131099700927734
ell 399, elapsed: 0.0006780624389648438
ell 398, elapsed: 0.0007441043853759766
ell 392, elapsed: 0.0014941692352294922
ell 391, elapsed: 0.0006999969482421875
ell 390, elapsed: 0.0006940364837646484
ell 389, elapsed: 0.0007159709930419922
ell 388, elapsed: 0.0010750293731689453
ell 382, elapsed: 0.0013580322265625
ell 381, elapsed: 0.0007390975952148438
ell 380, elapsed: 0.0006849765777587891
ell 379, elapsed: 0.0008549690246582031
ell 378, elapsed: 0.0006840229034423828
ell 372, elapsed: 0.0013871192932128906
ell 371, elapsed: 0.0006861686706542969
ell 370, elapsed: 0.0007290840148925781
ell 369, elapsed: 0.0006937980651855469
ell 368, elapsed: 0.0007359981536865234
ell 362, elapsed: 0.0013360977172851562
ell 361, elapsed: 0.0007081031799316406
ell 360, elapsed: 0.0007901191711425781
ell 359, elapsed: 0.0007178783416748047
ell 358, elapsed: 0.0006859302520751953
ell 352, elapsed: 0.0013761520385742188
ell 351, elapsed: 0.0009281635284423828
ell 350, elapsed: 0.0006868839263916016
ell 349, elapsed: 0.0007009506225585938
ell 348, elapsed: 0.0007059574127197266
ell 342, elapsed: 0.0015799999237060547
ell 341, elapsed: 0.0006890296936035156
ell 340, elapsed: 0.0007410049438476562
ell 339, elapsed: 0.0006840229034423828
ell 338, elapsed: 0.0007338523864746094
ell 332, elapsed: 0.0015177726745605469
ell 331, elapsed: 0.0007112026214599609
ell 330, elapsed: 0.0006871223449707031
ell 329, elapsed: 0.0007240772247314453
ell 328, elapsed: 0.0008618831634521484
ell 322, elapsed: 0.0013980865478515625
ell 321, elapsed: 0.0007219314575195312
ell 320, elapsed: 0.0007009506225585938
ell 319, elapsed: 0.0008230209350585938
ell 318, elapsed: 0.0007379055023193359
ell 312, elapsed: 0.0013549327850341797
ell 311, elapsed: 0.0006899833679199219
ell 310, elapsed: 0.000823974609375
ell 309, elapsed: 0.0007050037384033203
ell 308, elapsed: 0.0006909370422363281
ell 302, elapsed: 0.0013580322265625
ell 301, elapsed: 0.0007348060607910156
ell 300, elapsed: 0.0008349418640136719
ell 299, elapsed: 0.0007300376892089844
ell 298, elapsed: 0.0006878376007080078
ell 292, elapsed: 0.0013680458068847656
ell 291, elapsed: 0.0006999969482421875
ell 290, elapsed: 0.0007369518280029297
ell 289, elapsed: 0.0006821155548095703
ell 288, elapsed: 0.0007159709930419922
ell 282, elapsed: 0.0013890266418457031
ell 281, elapsed: 0.0007441043853759766
ell 280, elapsed: 0.0006921291351318359
ell 279, elapsed: 0.0007369518280029297
ell 278, elapsed: 0.0006909370422363281
ell 272, elapsed: 0.0013928413391113281
ell 271, elapsed: 0.0006921291351318359
ell 270, elapsed: 0.00074005126953125
ell 269, elapsed: 0.0006899833679199219
ell 268, elapsed: 0.0007331371307373047
ell 262, elapsed: 0.0013499259948730469
ell 261, elapsed: 0.00074005126953125
ell 260, elapsed: 0.0006890296936035156
ell 259, elapsed: 0.0007429122924804688
ell 258, elapsed: 0.0007069110870361328
ell 252, elapsed: 0.0014128684997558594
ell 251, elapsed: 0.0007798671722412109
ell 250, elapsed: 0.0006330013275146484
ell 249, elapsed: 0.0006589889526367188
ell 248, elapsed: 0.0005910396575927734
ell 242, elapsed: 0.0011479854583740234
ell 241, elapsed: 0.0005888938903808594
ell 240, elapsed: 0.0005800724029541016
ell 239, elapsed: 0.0005729198455810547
ell 238, elapsed: 0.0006000995635986328
ell 232, elapsed: 0.0010900497436523438
ell 231, elapsed: 0.0005688667297363281
ell 230, elapsed: 0.0005791187286376953
ell 229, elapsed: 0.00057220458984375
ell 228, elapsed: 0.0006392002105712891
ell 222, elapsed: 0.0011279582977294922
ell 221, elapsed: 0.0006270408630371094
ell 220, elapsed: 0.0007779598236083984
ell 219, elapsed: 0.0007810592651367188
ell 218, elapsed: 0.0007729530334472656
ell 212, elapsed: 0.0013320446014404297
ell 211, elapsed: 0.0005810260772705078
ell 210, elapsed: 0.0005688667297363281
ell 209, elapsed: 0.0005590915679931641
ell 208, elapsed: 0.0006999969482421875
ell 202, elapsed: 0.0010650157928466797
ell 201, elapsed: 0.0005631446838378906
ell 200, elapsed: 0.0005679130554199219
ell 199, elapsed: 0.0005588531494140625
ell 198, elapsed: 0.0007848739624023438
ell 192, elapsed: 0.0015099048614501953
ell 191, elapsed: 0.0007579326629638672
ell 190, elapsed: 0.0007860660552978516
ell 189, elapsed: 0.0007271766662597656
ell 188, elapsed: 0.0008821487426757812
ell 182, elapsed: 0.0015408992767333984
ell 181, elapsed: 0.0007579326629638672
ell 180, elapsed: 0.0007808208465576172
ell 179, elapsed: 0.0007619857788085938
ell 178, elapsed: 0.0007598400115966797
ell 172, elapsed: 0.0017600059509277344
ell 171, elapsed: 0.0006959438323974609
ell 170, elapsed: 0.0007929801940917969
ell 169, elapsed: 0.0006210803985595703
ell 168, elapsed: 0.0006229877471923828
ell 162, elapsed: 0.001230001449584961
ell 161, elapsed: 0.0007538795471191406
ell 160, elapsed: 0.0007700920104980469
ell 159, elapsed: 0.0007631778717041016
ell 158, elapsed: 0.0007719993591308594
ell 152, elapsed: 0.0017278194427490234
ell 151, elapsed: 0.0006940364837646484
ell 150, elapsed: 0.0007319450378417969
ell 149, elapsed: 0.0006170272827148438
ell 148, elapsed: 0.0008170604705810547
ell 142, elapsed: 0.001483917236328125
ell 141, elapsed: 0.0007550716400146484
ell 140, elapsed: 0.0006639957427978516
ell 139, elapsed: 0.0007770061492919922
ell 138, elapsed: 0.0006279945373535156
ell 132, elapsed: 0.0011548995971679688
ell 131, elapsed: 0.0006239414215087891
ell 130, elapsed: 0.0006330013275146484
ell 129, elapsed: 0.0006928443908691406
ell 128, elapsed: 0.0005958080291748047
ell 122, elapsed: 0.001065969467163086
ell 121, elapsed: 0.00055694580078125
ell 120, elapsed: 0.0005650520324707031
ell 119, elapsed: 0.0008571147918701172
ell 118, elapsed: 0.0007569789886474609
ell 112, elapsed: 0.0016829967498779297
ell 111, elapsed: 0.0007300376892089844
ell 110, elapsed: 0.001074075698852539
ell 109, elapsed: 0.0007600784301757812
ell 108, elapsed: 0.0007688999176025391
ell 102, elapsed: 0.0014541149139404297
ell 101, elapsed: 0.00357818603515625
ell 100, elapsed: 0.004261016845703125
ell 99, elapsed: 0.004128932952880859
ell 98, elapsed: 0.0039031505584716797
ell 92, elapsed: 0.012336015701293945
ell 91, elapsed: 0.003329038619995117
ell 90, elapsed: 0.0038449764251708984
ell 89, elapsed: 0.0039179325103759766
ell 88, elapsed: 0.003665924072265625
ell 82, elapsed: 0.006644010543823242
ell 81, elapsed: 0.0034139156341552734
ell 80, elapsed: 0.0035600662231445312
ell 79, elapsed: 0.0038080215454101562
ell 78, elapsed: 0.004099130630493164
ell 72, elapsed: 0.006066083908081055
ell 71, elapsed: 0.0033080577850341797
ell 70, elapsed: 0.003503084182739258
ell 69, elapsed: 0.0036449432373046875
ell 68, elapsed: 0.0032482147216796875
ell 62, elapsed: 0.006144046783447266
ell 61, elapsed: 0.003451108932495117
ell 60, elapsed: 0.0037491321563720703
ell 59, elapsed: 0.004307985305786133
ell 58, elapsed: 0.0042798519134521484
ell 52, elapsed: 0.006418943405151367
ell 51, elapsed: 0.003554105758666992
ell 50, elapsed: 0.0032629966735839844
ell 49, elapsed: 0.0030100345611572266
ell 48, elapsed: 0.0037338733673095703
ell 42, elapsed: 0.006614208221435547
ell 41, elapsed: 0.003465890884399414
ell 40, elapsed: 0.0032689571380615234
ell 39, elapsed: 0.0036330223083496094
ell 38, elapsed: 0.003398895263671875
ell 32, elapsed: 0.006512165069580078
ell 31, elapsed: 0.0033681392669677734
ell 30, elapsed: 0.003255128860473633
ell 29, elapsed: 0.003628969192504883
ell 28, elapsed: 0.003401041030883789
ell 22, elapsed: 0.006006956100463867
ell 21, elapsed: 0.002955198287963867
ell 20, elapsed: 0.0035691261291503906
ell 19, elapsed: 0.004091024398803711
ell 18, elapsed: 0.0029108524322509766
ell 12, elapsed: 0.006030082702636719
ell 11, elapsed: 0.003036975860595703
ell 10, elapsed: 0.0030889511108398438
ell 9, elapsed: 0.004016876220703125
ell 8, elapsed: 0.003258943557739258
  0.783603 seconds (74.14 k allocations: 12.051 MiB)
elapsed: 0.004591941833496094
step:          0.071117 sec (0 allocations: 0 byte, 0.0% gc time)
swapping:      0.000675 sec (0 allocations: 0 byte, 0.0% gc time)
calc_Mellell!: 0.029583 sec (0 allocations: 0 byte, 0.0% gc time)
  t0 :  0.010587 sec (0 allocations: 0 byte, 0.0% gc time)
  tm2 : 0.067704 sec (0 allocations: 0 byte, 0.0% gc time)
  tm2s: 0.008944 sec (0 allocations: 0 byte, 0.0% gc time)
  tm4 : 0.179529 sec (0 allocations: 0 byte, 0.0% gc time)
  tp2 : 0.0 sec (0 allocations: 0 byte, 0.0% gc time)
  tp2s: 0.0 sec (0 allocations: 0 byte, 0.0% gc time)
  tp4 : 0.0 sec (0 allocations: 0 byte, 0.0% gc time)
calc_wtdll!:   0.538837 sec (49.2 k allocations: 11.133 MB, 0.0% gc time)
calc_wljj!:    0.037526 sec (69 allocations: 1.078 KB, 0.0% gc time)
mult_prefac!:  0.0 sec (0 allocations: 0 byte, 0.0% gc time)
convert:       0.0 sec (0 allocations: 0 byte, 0.0% gc time)
write:         0.049082 sec (0 allocations: 0 byte, 0.0% gc time)
test_rand_2f1: 0.0 sec (0 allocations: 0 byte, 0.0% gc time)
Closing outfile out/MlCache/MlCache.bin...   0.000011 seconds
xi, l=0, nu=0:   0.353677 seconds (556.07 k allocations: 27.070 MiB, 3.89% gc time)
xi, l=0, nu=-2:  0.002261 seconds (144 allocations: 149.563 KiB)
Created 'out/xi.tsv'.
  q=1.1, R=0.6:	  1.250022 seconds (373.06 k allocations: 174.511 MiB, 2.31% gc time)
  q=1.1, R=0.7:	  1.222289 seconds (391.29 k allocations: 182.916 MiB, 1.75% gc time)
  q=1.1, R=0.8:	  1.338692 seconds (383.81 k allocations: 179.466 MiB, 1.61% gc time)
  q=1.1, R=0.9:	  1.308612 seconds (376.40 k allocations: 176.056 MiB, 1.80% gc time)
  q=1.1, R=0.998:	 22.967057 seconds (10.67 M allocations: 831.832 MiB, 0.27% gc time)
  q=1.1, R=1.0:	  0.043772 seconds (12.29 k allocations: 9.129 MiB, 5.48% gc time)

ℓ = 1000
Δℓ = 4
ΔℓRg1 = -4
N = 4096
q = 1.1
kmin = 1.0e-5
kmax = 1000.0
χ0 = 0.001
RR = RR.tsv
ℓmax = ℓmax.bin
f21 = f21.bin
kmin = 1.0e-5
kmax = 1000.0
dlrec    = 4
dlrecRg1 = -4
Output size: 1573632 bytes = 0.0014655590057373047 GiB
Output size: 786816 bytes = 0.0007327795028686523 GiB
Reading 'out/F21EllCache'...   0.001497 seconds (272 allocations: 533.594 KiB)
ellmax: 1002
lmaxcache: 1000
fell[:,1,1] = Complex{Float64}[1.7262928128202118e-224 - 4.2281979352226944e-240im, 1.7282693092099662e-224 - 4.233038955177176e-240im]
ell 1002, elapsed: 8.20159912109375e-5
ell 1001, elapsed: 0.0011849403381347656
ell 1000, elapsed: 0.0012061595916748047
ell 999, elapsed: 0.005739927291870117
ell 998, elapsed: 0.005854129791259766
ell 44, elapsed: 0.7760441303253174
ell 43, elapsed: 0.005464076995849609
ell 42, elapsed: 0.0054819583892822266
ell 41, elapsed: 0.006093025207519531
ell 40, elapsed: 0.005719184875488281
  0.823312 seconds (4.65 k allocations: 318.375 KiB)
elapsed: 0.008272886276245117
step:          0.774264 sec (0 allocations: 0 byte, 0.0% gc time)
swapping:      0.000483 sec (0 allocations: 0 byte, 0.0% gc time)
calc_Mellell!: 0.001329 sec (0 allocations: 0 byte, 0.0% gc time)
  t0 :  0.000767 sec (0 allocations: 0 byte, 0.0% gc time)
  tm2 : 0.009358 sec (0 allocations: 0 byte, 0.0% gc time)
  tm2s: 0.000695 sec (0 allocations: 0 byte, 0.0% gc time)
  tm4 : 0.02667 sec (0 allocations: 0 byte, 0.0% gc time)
  tp2 : 0.0 sec (0 allocations: 0 byte, 0.0% gc time)
  tp2s: 0.0 sec (0 allocations: 0 byte, 0.0% gc time)
  tp4 : 0.0 sec (0 allocations: 0 byte, 0.0% gc time)
calc_wtdll!:   0.03766 sec (480 allocations: 52.5 KB, 0.0% gc time)
calc_wljj!:    0.001482 sec (1 allocations: 16 byte, 0.0% gc time)
mult_prefac!:  0.0 sec (0 allocations: 0 byte, 0.0% gc time)
convert:       0.0 sec (0 allocations: 0 byte, 0.0% gc time)
write:         0.001009 sec (0 allocations: 0 byte, 0.0% gc time)
test_rand_2f1: 0.0 sec (0 allocations: 0 byte, 0.0% gc time)
Closing outfile out/MlCache/MlCache.bin...   0.001040 seconds
  0.583737 seconds (54 allocations: 67.203 KiB)
make_phi():   0.008859 seconds (80 allocations: 276.297 KiB)
  0.002873 seconds (108 allocations: 5.813 KiB)
tskip:       1.0e-6 sec (0 allocations: 0 byte, 0.0% gc time)
tread:       0.000632 sec (20 allocations: 1.328 KB, 0.0% gc time)
tmultphi:    0.000245 sec (0 allocations: 0 byte, 0.0% gc time)
tbrfft:      0.001167 sec (96 allocations: 4.5 KB, 0.0% gc time)
tmultprefac: 0.000829 sec (0 allocations: 0 byte, 0.0% gc time)
toutfunc:    0.000116 sec (0 allocations: 0 byte, 0.0% gc time)
Created 'out/wl42_jj00.tsv'.
Created 'out/wl42_jj02.tsv'.
   Testing TwoFAST tests passed 
