Julia Version 1.3.1-pre.13
Commit 8639e5771d (2019-12-07 10:31 UTC)
Platform Info:
  OS: Linux (x86_64-linux-gnu)
  CPU: Intel(R) Xeon(R) Silver 4114 CPU @ 2.20GHz
  WORD_SIZE: 64
  LIBM: libopenlibm
  LLVM: libLLVM-6.0.1 (ORCJIT, skylake)

   Cloning default registries into `~/.julia`
   Cloning registry from "https://github.com/JuliaRegistries/General.git"
[?25l    Fetching: [>                                        ]  0.0 %    Fetching: [=============>                           ]  30.7 %    Fetching: [==============================>          ]  72.5 %[2K[?25h     Added registry `General` to `~/.julia/registries/General`
 Resolving package versions...
 Installed IncGammaBeta ───── v0.1.0
 Installed VersionParsing ─── v1.1.3
 Installed Conda ──────────── v1.3.0
 Installed Parsers ────────── v0.3.10
 Installed AbstractFFTs ───── v0.5.0
 Installed BinDeps ────────── v1.0.0
 Installed SpecialFunctions ─ v0.8.0
 Installed Reexport ───────── v0.2.0
 Installed Compat ─────────── v2.2.0
 Installed FFTW ───────────── v1.1.0
 Installed JSON ───────────── v0.21.0
 Installed BinaryProvider ─── v0.5.8
 Installed URIParser ──────── v0.4.0
 Installed AbstractAlgebra ── v0.7.1
 Installed TwoFAST ────────── v0.1.0
 Installed Nemo ───────────── v0.15.1
  Updating `~/.julia/environments/v1.3/Project.toml`
  [0dd23c3e] + TwoFAST v0.1.0
  Updating `~/.julia/environments/v1.3/Manifest.toml`
  [c3fe647b] + AbstractAlgebra v0.7.1
  [621f4979] + AbstractFFTs v0.5.0
  [9e28174c] + BinDeps v1.0.0
  [b99e7846] + BinaryProvider v0.5.8
  [34da2185] + Compat v2.2.0
  [8f4d0f93] + Conda v1.3.0
  [7a1cc6ca] + FFTW v1.1.0
  [5087d2c0] + IncGammaBeta v0.1.0
  [682c06a0] + JSON v0.21.0
  [2edaba10] + Nemo v0.15.1
  [69de0a69] + Parsers v0.3.10
  [189a3867] + Reexport v0.2.0
  [276daf66] + SpecialFunctions v0.8.0
  [0dd23c3e] + TwoFAST v0.1.0
  [30578b45] + URIParser v0.4.0
  [81def892] + VersionParsing v1.1.3
  [2a0f44e3] + Base64 
  [ade2ca70] + Dates 
  [8bb1440f] + DelimitedFiles 
  [8ba89e20] + Distributed 
  [b77e0a4c] + InteractiveUtils 
  [76f85450] + LibGit2 
  [8f399da3] + Libdl 
  [37e2e46d] + LinearAlgebra 
  [56ddb016] + Logging 
  [d6f4376e] + Markdown 
  [a63ad114] + Mmap 
  [44cfe95a] + Pkg 
  [de0858da] + Printf 
  [3fa0cd96] + REPL 
  [9a3f8284] + Random 
  [ea8e919c] + SHA 
  [9e88b42a] + Serialization 
  [1a1011a3] + SharedArrays 
  [6462fe0b] + Sockets 
  [2f01184e] + SparseArrays 
  [10745b16] + Statistics 
  [8dfed614] + Test 
  [cf7118a7] + UUIDs 
  [4ec0a83e] + Unicode 
  Building Conda ───────────→ `~/.julia/packages/Conda/kLXeC/deps/build.log`
  Building SpecialFunctions → `~/.julia/packages/SpecialFunctions/ne2iw/deps/build.log`
  Building FFTW ────────────→ `~/.julia/packages/FFTW/loJ3F/deps/build.log`
  Building Nemo ────────────→ `~/.julia/packages/Nemo/qzx0m/deps/build.log`
   Testing TwoFAST
 Resolving package versions...
 Installed Dierckx ─ v0.4.1
  Building Dierckx → `~/.julia/packages/Dierckx/9SY4A/deps/build.log`
    Status `/tmp/jl_iWb5Xu/Manifest.toml`
  [c3fe647b] AbstractAlgebra v0.7.1
  [621f4979] AbstractFFTs v0.5.0
  [9e28174c] BinDeps v1.0.0
  [b99e7846] BinaryProvider v0.5.8
  [34da2185] Compat v2.2.0
  [8f4d0f93] Conda v1.3.0
  [39dd38d3] Dierckx v0.4.1
  [7a1cc6ca] FFTW v1.1.0
  [5087d2c0] IncGammaBeta v0.1.0
  [682c06a0] JSON v0.21.0
  [2edaba10] Nemo v0.15.1
  [69de0a69] Parsers v0.3.10
  [189a3867] Reexport v0.2.0
  [276daf66] SpecialFunctions v0.8.0
  [0dd23c3e] TwoFAST v0.1.0
  [30578b45] URIParser v0.4.0
  [81def892] VersionParsing v1.1.3
  [2a0f44e3] Base64  [`@stdlib/Base64`]
  [ade2ca70] Dates  [`@stdlib/Dates`]
  [8bb1440f] DelimitedFiles  [`@stdlib/DelimitedFiles`]
  [8ba89e20] Distributed  [`@stdlib/Distributed`]
  [b77e0a4c] InteractiveUtils  [`@stdlib/InteractiveUtils`]
  [76f85450] LibGit2  [`@stdlib/LibGit2`]
  [8f399da3] Libdl  [`@stdlib/Libdl`]
  [37e2e46d] LinearAlgebra  [`@stdlib/LinearAlgebra`]
  [56ddb016] Logging  [`@stdlib/Logging`]
  [d6f4376e] Markdown  [`@stdlib/Markdown`]
  [a63ad114] Mmap  [`@stdlib/Mmap`]
  [44cfe95a] Pkg  [`@stdlib/Pkg`]
  [de0858da] Printf  [`@stdlib/Printf`]
  [3fa0cd96] REPL  [`@stdlib/REPL`]
  [9a3f8284] Random  [`@stdlib/Random`]
  [ea8e919c] SHA  [`@stdlib/SHA`]
  [9e88b42a] Serialization  [`@stdlib/Serialization`]
  [1a1011a3] SharedArrays  [`@stdlib/SharedArrays`]
  [6462fe0b] Sockets  [`@stdlib/Sockets`]
  [2f01184e] SparseArrays  [`@stdlib/SparseArrays`]
  [10745b16] Statistics  [`@stdlib/Statistics`]
  [8dfed614] Test  [`@stdlib/Test`]
  [cf7118a7] UUIDs  [`@stdlib/UUIDs`]
  [4ec0a83e] Unicode  [`@stdlib/Unicode`]

Welcome to Nemo version 0.15.1

Nemo comes with absolutely no warranty whatsoever


Welcome to Nemo version 0.15.1

Nemo comes with absolutely no warranty whatsoever

Testing ξ(r), ℓ=0, ν=-1 ... passed
Testing ξ(r), ℓ=0, ν=0 ... passed
Testing ξ(r), ℓ=0, ν=1 ... passed
Testing ξ(r), ℓ=0, ν=2 ... passed
Testing ξ(r), ℓ=0, ν=3 ... passed
Testing ξ(r), ℓ=1, ν=0 ... passed
Testing ξ(r), ℓ=1, ν=1 ... passed
Testing ξ(r), ℓ=1, ν=2 ... passed
Testing ξ(r), ℓ=1, ν=3 ... passed
Testing ξ(r), ℓ=2, ν=-1 ... passed
Testing ξ(r), ℓ=2, ν=0 ... passed
Testing ξ(r), ℓ=2, ν=1 ... passed
Testing ξ(r), ℓ=2, ν=2 ... passed
Testing ξ(r), ℓ=2, ν=3 ... passed
Testing ξ(r), ℓ=3, ν=-1 ... passed
Testing ξ(r), ℓ=3, ν=0 ... passed
Testing ξ(r), ℓ=3, ν=1 ... passed
Testing ξ(r), ℓ=3, ν=2 ... passed
Testing ξ(r), ℓ=3, ν=3 ... passed
Testing ξ(r), ℓ=4, ν=-1 ... passed
Testing ξ(r), ℓ=4, ν=0 ... passed
Testing ξ(r), ℓ=4, ν=1 ... passed
Testing ξ(r), ℓ=4, ν=2 ... passed
Testing ξ(r), ℓ=4, ν=3 ... passed
Testing ξ(r) ... passed
Testing ξ′(r) ... passed
Testing ξ″(r) ... passed
Calculating fmax: 
  dlrec    = 4
  dlrecRg1 = -4
  q=1.1, R=1.1:	  3.919497 seconds (1.11 M allocations: 119.130 MiB, 2.64% gc time)

  3.945481 seconds (1.11 M allocations: 119.487 MiB, 2.62% gc time)
ℓ = 1202
Δℓ = 4
ΔℓRg1 = -4
N = 1600
q = 1.1
kmin = 1.0e-5
kmax = 100000.00000000004
χ0 = 0.023029999999999995
RR = RR.tsv
ℓmax = ℓmax.bin
f21 = f21.bin
kmin = 1.0e-5
kmax = 100000.0
dlrec    = 4
dlrecRg1 = -4
Output size: 5741568 bytes = 0.005347251892089844 GiB
Output size: 51264 bytes = 4.774332046508789e-5 GiB
Reading 'out/F21EllCache'...   0.619584 seconds (348.13 k allocations: 17.950 MiB, 2.96% gc time)
ellmax: 1202
lmaxcache: 1202
fell[:,1,1] = Complex{Float64}[3.9583795592771634e-52 - 9.695233714158177e-68im, 3.990121772925759e-52 - 9.772979714843386e-68im]
ell 1202, elapsed: 0.002611875534057617
ell 1201, elapsed: 2.4163739681243896
ell 1200, elapsed: 0.00046181678771972656
ell 1199, elapsed: 0.00043082237243652344
ell 1198, elapsed: 0.0004298686981201172
ell 1002, elapsed: 0.011900186538696289
ell 1001, elapsed: 0.00047707557678222656
ell 1000, elapsed: 0.0005857944488525391
ell 999, elapsed: 0.00043010711669921875
ell 998, elapsed: 0.0005021095275878906
ell 902, elapsed: 0.004921913146972656
ell 901, elapsed: 0.0005269050598144531
ell 900, elapsed: 0.0005578994750976562
ell 899, elapsed: 0.000553131103515625
ell 898, elapsed: 0.0004990100860595703
ell 802, elapsed: 0.005089998245239258
ell 801, elapsed: 0.000514984130859375
ell 800, elapsed: 0.0005180835723876953
ell 799, elapsed: 0.0005052089691162109
ell 798, elapsed: 0.0004971027374267578
ell 702, elapsed: 0.004951000213623047
ell 701, elapsed: 0.0005259513854980469
ell 700, elapsed: 0.0005209445953369141
ell 699, elapsed: 0.0004889965057373047
ell 698, elapsed: 0.0004980564117431641
ell 602, elapsed: 0.005046844482421875
ell 601, elapsed: 0.0005209445953369141
ell 600, elapsed: 0.0005030632019042969
ell 599, elapsed: 0.0005068778991699219
ell 598, elapsed: 0.0005559921264648438
ell 502, elapsed: 0.004975080490112305
ell 501, elapsed: 0.0005259513854980469
ell 500, elapsed: 0.0005319118499755859
ell 499, elapsed: 0.00051116943359375
ell 498, elapsed: 0.0004999637603759766
ell 402, elapsed: 0.005068063735961914
ell 401, elapsed: 0.0005741119384765625
ell 400, elapsed: 0.0005140304565429688
ell 399, elapsed: 0.0006170272827148438
ell 398, elapsed: 0.0005559921264648438
ell 302, elapsed: 0.0049130916595458984
ell 301, elapsed: 0.0005450248718261719
ell 300, elapsed: 0.0005230903625488281
ell 299, elapsed: 0.0004961490631103516
ell 298, elapsed: 0.0005118846893310547
ell 202, elapsed: 0.0050661563873291016
ell 201, elapsed: 0.0006389617919921875
ell 200, elapsed: 0.0006129741668701172
ell 199, elapsed: 0.0006198883056640625
ell 198, elapsed: 0.0006060600280761719
ell 152, elapsed: 0.0027921199798583984
ell 151, elapsed: 0.0006108283996582031
ell 150, elapsed: 0.0006818771362304688
ell 149, elapsed: 0.0006020069122314453
ell 148, elapsed: 0.000514984130859375
ell 127, elapsed: 0.0015721321105957031
ell 126, elapsed: 0.00049591064453125
ell 125, elapsed: 0.0005350112915039062
ell 124, elapsed: 0.0004940032958984375
ell 123, elapsed: 0.0005090236663818359
ell 114, elapsed: 0.0009419918060302734
ell 113, elapsed: 0.0005061626434326172
ell 112, elapsed: 0.0005269050598144531
ell 111, elapsed: 0.0005090236663818359
ell 110, elapsed: 0.0005090236663818359
ell 102, elapsed: 0.0010271072387695312
ell 101, elapsed: 0.0004901885986328125
ell 100, elapsed: 0.0005040168762207031
ell 99, elapsed: 0.0005409717559814453
ell 98, elapsed: 0.0005328655242919922
ell 97, elapsed: 0.0005459785461425781
ell 96, elapsed: 0.0006680488586425781
ell 95, elapsed: 0.0005691051483154297
ell 94, elapsed: 0.0006380081176757812
ell 93, elapsed: 0.0005581378936767578
ell 92, elapsed: 0.0006120204925537109
ell 91, elapsed: 0.0005998611450195312
ell 90, elapsed: 0.0007350444793701172
ell 89, elapsed: 0.0006320476531982422
ell 88, elapsed: 0.000720977783203125
ell 87, elapsed: 0.0006570816040039062
ell 86, elapsed: 0.0007798671722412109
ell 85, elapsed: 0.0006380081176757812
ell 84, elapsed: 0.0007281303405761719
ell 83, elapsed: 0.0006330013275146484
ell 82, elapsed: 0.0007281303405761719
ell 81, elapsed: 0.0006639957427978516
ell 80, elapsed: 0.0007300376892089844
ell 79, elapsed: 0.0006358623504638672
ell 78, elapsed: 0.0007231235504150391
ell 77, elapsed: 0.000637054443359375
ell 76, elapsed: 0.0007429122924804688
ell 75, elapsed: 0.0006289482116699219
ell 74, elapsed: 0.0007240772247314453
ell 73, elapsed: 0.0009160041809082031
ell 72, elapsed: 0.0007278919219970703
ell 71, elapsed: 0.0006361007690429688
ell 70, elapsed: 0.0007269382476806641
ell 69, elapsed: 0.0006511211395263672
ell 68, elapsed: 0.0007328987121582031
ell 67, elapsed: 0.0006392002105712891
ell 66, elapsed: 0.0007600784301757812
ell 65, elapsed: 0.0006470680236816406
ell 64, elapsed: 0.0007557868957519531
ell 63, elapsed: 0.0004911422729492188
ell 62, elapsed: 0.0005970001220703125
ell 61, elapsed: 0.0005278587341308594
ell 60, elapsed: 0.0005731582641601562
ell 59, elapsed: 0.0004680156707763672
ell 58, elapsed: 0.0005581378936767578
ell 57, elapsed: 0.0004730224609375
ell 56, elapsed: 0.0005509853363037109
ell 55, elapsed: 0.00047397613525390625
ell 54, elapsed: 0.0005650520324707031
ell 53, elapsed: 0.0004980564117431641
ell 52, elapsed: 0.0005590915679931641
ell 51, elapsed: 0.0004730224609375
ell 50, elapsed: 0.0005431175231933594
ell 49, elapsed: 0.0004711151123046875
ell 48, elapsed: 0.000553131103515625
ell 47, elapsed: 0.0004742145538330078
ell 46, elapsed: 0.0005769729614257812
ell 45, elapsed: 0.0004711151123046875
ell 44, elapsed: 0.0005540847778320312
ell 43, elapsed: 0.0004699230194091797
ell 42, elapsed: 0.0005450248718261719
ell 41, elapsed: 0.0004711151123046875
ell 40, elapsed: 0.0005450248718261719
ell 39, elapsed: 0.0004868507385253906
ell 38, elapsed: 0.0005471706390380859
ell 37, elapsed: 0.0004730224609375
ell 36, elapsed: 0.0005509853363037109
ell 35, elapsed: 0.0004730224609375
ell 34, elapsed: 0.0005488395690917969
ell 33, elapsed: 0.0004680156707763672
ell 32, elapsed: 0.0005860328674316406
ell 31, elapsed: 0.0004699230194091797
ell 30, elapsed: 0.0005500316619873047
ell 29, elapsed: 0.00047087669372558594
ell 28, elapsed: 0.0005519390106201172
ell 27, elapsed: 0.00046706199645996094
ell 26, elapsed: 0.0005459785461425781
ell 25, elapsed: 0.0004839897155761719
ell 24, elapsed: 0.0005559921264648438
ell 23, elapsed: 0.00046896934509277344
ell 22, elapsed: 0.0005500316619873047
ell 21, elapsed: 0.0004630088806152344
ell 20, elapsed: 0.0005478858947753906
ell 19, elapsed: 0.0004730224609375
ell 18, elapsed: 0.0005631446838378906
ell 17, elapsed: 0.0004639625549316406
ell 16, elapsed: 0.0005490779876708984
ell 15, elapsed: 0.0004699230194091797
ell 14, elapsed: 0.0005500316619873047
ell 13, elapsed: 0.0004611015319824219
ell 12, elapsed: 0.0005478858947753906
ell 11, elapsed: 0.0004940032958984375
ell 10, elapsed: 0.0005500316619873047
ell 9, elapsed: 0.00047516822814941406
ell 8, elapsed: 0.0005559921264648438
ell 7, elapsed: 0.0004680156707763672
ell 6, elapsed: 0.0005509853363037109
ell 5, elapsed: 0.0004699230194091797
ell 4, elapsed: 0.0005748271942138672
ell 3, elapsed: 0.0004730224609375
ell 2, elapsed: 0.00055694580078125
ell 1, elapsed: 0.0004630088806152344
ell 0, elapsed: 0.0005481243133544922
  2.739416 seconds (1.51 M allocations: 74.536 MiB, 1.49% gc time)
elapsed: 0.0006220340728759766
step:          0.7136 sec (478.157 k allocations: 23.752 MB, 0.0% gc time)
swapping:      0.000594 sec (0 allocations: 0 byte, 0.0% gc time)
calc_Mellell!: 0.564382 sec (371.704 k allocations: 18.417 MB, 0.0% gc time)
  t0 :  0.0 sec (0 allocations: 0 byte, 0.0% gc time)
  tm2 : 0.0 sec (0 allocations: 0 byte, 0.0% gc time)
  tm2s: 0.0 sec (0 allocations: 0 byte, 0.0% gc time)
  tm4 : 0.0 sec (0 allocations: 0 byte, 0.0% gc time)
  tp2 : 0.0 sec (0 allocations: 0 byte, 0.0% gc time)
  tp2s: 0.0 sec (0 allocations: 0 byte, 0.0% gc time)
  tp4 : 0.0 sec (0 allocations: 0 byte, 0.0% gc time)
calc_wtdll!:   1.253952 sec (571.763 k allocations: 28.061 MB, 3.25% gc time)
calc_wljj!:    0.006089 sec (6 allocations: 96 byte, 0.0% gc time)
mult_prefac!:  0.0 sec (0 allocations: 0 byte, 0.0% gc time)
convert:       0.0 sec (0 allocations: 0 byte, 0.0% gc time)
write:         0.005182 sec (0 allocations: 0 byte, 0.0% gc time)
test_rand_2f1: 0.0 sec (0 allocations: 0 byte, 0.0% gc time)
Closing outfile out/Ml21-cache.bin...   0.000131 seconds
  1.102733 seconds (8.63 k allocations: 420.063 KiB)
make_phi():   0.012159 seconds (8.20 k allocations: 238.016 KiB)
  0.181225 seconds (121.94 k allocations: 5.916 MiB)
tskip:       1.9e-5 sec (0 allocations: 0 byte, 0.0% gc time)
tread:       0.002195 sec (20 allocations: 2.188 KB, 0.0% gc time)
tmultphi:    0.03817 sec (26.146 k allocations: 1.344 MB, 0.0% gc time)
tbrfft:      0.003939 sec (896 allocations: 42.0 KB, 0.0% gc time)
tmultprefac: 0.002438 sec (0 allocations: 0 byte, 0.0% gc time)
toutfunc:    0.134393 sec (94.23 k allocations: 4.459 MB, 0.0% gc time)
Testing R=1.1 ... passed
Calculating fmax: 
  dlrec    = 4
  dlrecRg1 = -4
  q=1.1, R=1.0:	  0.016523 seconds (4.81 k allocations: 3.569 MiB)

  0.016766 seconds (4.87 k allocations: 3.601 MiB)
ℓ = 1202
Δℓ = 4
ΔℓRg1 = -4
N = 1600
q = 1.1
kmin = 1.0e-5
kmax = 100000.00000000004
χ0 = 0.023029999999999995
RR = RR.tsv
ℓmax = ℓmax.bin
f21 = f21.bin
kmin = 1.0e-5
kmax = 100000.0
dlrec    = 4
dlrecRg1 = -4
Output size: 61465536 bytes = 0.05724424123764038 GiB
Output size: 51264 bytes = 4.774332046508789e-5 GiB
Reading 'out/F21EllCache'...   0.001157 seconds (271 allocations: 84.719 KiB)
ellmax: 1202
lmaxcache: 1202
fell[:,1,1] = Complex{Float64}[809.6031528389767 - 1.9829558194077161e-13im, 0.0 + 0.0im]
ell 1202, elapsed: 2.5033950805664062e-5
ell 1201, elapsed: 0.0153961181640625
ell 1200, elapsed: 0.00042819976806640625
ell 1199, elapsed: 0.0005362033843994141
ell 1198, elapsed: 0.0004839897155761719
ell 1197, elapsed: 0.0005171298980712891
ell 1196, elapsed: 0.0005509853363037109
ell 1195, elapsed: 0.0011570453643798828
ell 1194, elapsed: 0.0009238719940185547
ell 1193, elapsed: 0.0008900165557861328
ell 1192, elapsed: 0.0009229183197021484
ell 1191, elapsed: 0.0009980201721191406
ell 1190, elapsed: 0.0007929801940917969
ell 1189, elapsed: 0.0009322166442871094
ell 1188, elapsed: 0.0008149147033691406
ell 1187, elapsed: 0.005474090576171875
ell 1186, elapsed: 0.0008459091186523438
ell 1185, elapsed: 0.0011570453643798828
ell 1184, elapsed: 0.0007259845733642578
ell 1183, elapsed: 0.0008590221405029297
ell 1182, elapsed: 0.00067901611328125
ell 1181, elapsed: 0.001049041748046875
ell 1180, elapsed: 0.0008001327514648438
ell 1179, elapsed: 0.0010249614715576172
ell 1178, elapsed: 0.0007548332214355469
ell 1177, elapsed: 0.0009510517120361328
ell 1176, elapsed: 0.0008399486541748047
ell 1175, elapsed: 0.0011088848114013672
ell 1174, elapsed: 0.0007150173187255859
ell 1173, elapsed: 0.0008039474487304688
ell 1172, elapsed: 0.000659942626953125
ell 1171, elapsed: 0.0009851455688476562
ell 1170, elapsed: 0.0006999969482421875
ell 1169, elapsed: 0.0009000301361083984
ell 1168, elapsed: 0.0007090568542480469
ell 1167, elapsed: 0.0006289482116699219
ell 1166, elapsed: 0.0007221698760986328
ell 1165, elapsed: 0.0005970001220703125
ell 1164, elapsed: 0.0005028247833251953
ell 1163, elapsed: 0.007283926010131836
ell 1162, elapsed: 0.0007181167602539062
ell 1161, elapsed: 0.0008709430694580078
ell 1160, elapsed: 0.0007619857788085938
ell 1159, elapsed: 0.0007050037384033203
ell 1158, elapsed: 0.0008420944213867188
ell 1157, elapsed: 0.0009357929229736328
ell 1156, elapsed: 0.0006089210510253906
ell 1155, elapsed: 0.0007138252258300781
ell 1154, elapsed: 0.0005180835723876953
ell 1153, elapsed: 0.0007040500640869141
ell 1152, elapsed: 0.0006000995635986328
ell 1151, elapsed: 0.0007381439208984375
ell 1150, elapsed: 0.0006749629974365234
ell 1149, elapsed: 0.0008559226989746094
ell 1148, elapsed: 0.0006949901580810547
ell 1147, elapsed: 0.0008549690246582031
ell 1146, elapsed: 0.0004119873046875
ell 1145, elapsed: 0.0005199909210205078
ell 1144, elapsed: 0.00045013427734375
ell 1143, elapsed: 0.0006010532379150391
ell 1142, elapsed: 0.00049591064453125
ell 1141, elapsed: 0.0004711151123046875
ell 1140, elapsed: 0.0003559589385986328
ell 1139, elapsed: 0.000453948974609375
ell 1138, elapsed: 0.000492095947265625
ell 1137, elapsed: 0.0005571842193603516
ell 1136, elapsed: 0.0004971027374267578
ell 1135, elapsed: 0.0005598068237304688
ell 1134, elapsed: 0.0005581378936767578
ell 1133, elapsed: 0.0006358623504638672
ell 1132, elapsed: 0.0004448890686035156
ell 1131, elapsed: 0.0006489753723144531
ell 1130, elapsed: 0.00040793418884277344
ell 1129, elapsed: 0.0005910396575927734
ell 1128, elapsed: 0.0006089210510253906
ell 1127, elapsed: 0.0005209445953369141
ell 1126, elapsed: 0.0005419254302978516
ell 1125, elapsed: 0.0005190372467041016
ell 1124, elapsed: 0.0004901885986328125
ell 1123, elapsed: 0.0005600452423095703
ell 1122, elapsed: 0.0004940032958984375
ell 1121, elapsed: 0.0005779266357421875
ell 1120, elapsed: 0.0004980564117431641
ell 1119, elapsed: 0.0005710124969482422
ell 1118, elapsed: 0.0005218982696533203
ell 1117, elapsed: 0.0005259513854980469
ell 1116, elapsed: 0.0003819465637207031
ell 1115, elapsed: 0.0004601478576660156
ell 1114, elapsed: 0.0003669261932373047
ell 1113, elapsed: 0.0004329681396484375
ell 1112, elapsed: 0.0005009174346923828
ell 1111, elapsed: 0.0005309581756591797
ell 1110, elapsed: 0.0003628730773925781
ell 1109, elapsed: 0.0004520416259765625
ell 1108, elapsed: 0.0004839897155761719
ell 1107, elapsed: 0.0006699562072753906
ell 1106, elapsed: 0.0005929470062255859
ell 1105, elapsed: 0.0005390644073486328
ell 1104, elapsed: 0.0005409717559814453
ell 1103, elapsed: 0.0005381107330322266
ell 1102, elapsed: 0.0004489421844482422
ell 1101, elapsed: 0.0005359649658203125
ell 1100, elapsed: 0.0004420280456542969
ell 1099, elapsed: 0.0004980564117431641
ell 1098, elapsed: 0.0004379749298095703
ell 1097, elapsed: 0.0004990100860595703
ell 1096, elapsed: 0.0005650520324707031
ell 1095, elapsed: 0.0006339550018310547
ell 1094, elapsed: 0.00074005126953125
ell 1093, elapsed: 0.0005850791931152344
ell 1092, elapsed: 0.0004949569702148438
ell 1091, elapsed: 0.0005691051483154297
ell 1090, elapsed: 0.00047588348388671875
ell 1089, elapsed: 0.0005629062652587891
ell 1088, elapsed: 0.0005400180816650391
ell 1087, elapsed: 0.00055694580078125
ell 1086, elapsed: 0.0006170272827148438
ell 1085, elapsed: 0.0006000995635986328
ell 1084, elapsed: 0.0004181861877441406
ell 1083, elapsed: 0.0007441043853759766
ell 1082, elapsed: 0.0005929470062255859
ell 1081, elapsed: 0.016366958618164062
ell 1080, elapsed: 0.0004749298095703125
ell 1079, elapsed: 0.0008080005645751953
ell 1078, elapsed: 0.0004899501800537109
ell 1077, elapsed: 0.0006191730499267578
ell 1076, elapsed: 0.0005857944488525391
ell 1075, elapsed: 0.0005419254302978516
ell 1074, elapsed: 0.00045299530029296875
ell 1073, elapsed: 0.0005400180816650391
ell 1072, elapsed: 0.0004341602325439453
ell 1071, elapsed: 0.0005121231079101562
ell 1070, elapsed: 0.0004360675811767578
ell 1069, elapsed: 0.0008428096771240234
ell 1068, elapsed: 0.00044608116149902344
ell 1067, elapsed: 0.0005362033843994141
ell 1066, elapsed: 0.0004489421844482422
ell 1065, elapsed: 0.0005199909210205078
ell 1064, elapsed: 0.007729053497314453
ell 1063, elapsed: 0.0006079673767089844
ell 1062, elapsed: 0.0005609989166259766
ell 1061, elapsed: 0.0005619525909423828
ell 1060, elapsed: 0.0004448890686035156
ell 1059, elapsed: 0.0007300376892089844
ell 1058, elapsed: 0.0004639625549316406
ell 1057, elapsed: 0.0006830692291259766
ell 1056, elapsed: 0.00044918060302734375
ell 1055, elapsed: 0.0007631778717041016
ell 1054, elapsed: 0.0006451606750488281
ell 1053, elapsed: 0.0005478858947753906
ell 1052, elapsed: 0.00044798851013183594
ell 1051, elapsed: 0.0005440711975097656
ell 1050, elapsed: 0.0006961822509765625
ell 1049, elapsed: 0.0007579326629638672
ell 1048, elapsed: 0.0005838871002197266
ell 1047, elapsed: 0.012274026870727539
ell 1046, elapsed: 0.0005199909210205078
ell 1045, elapsed: 0.0005681514739990234
ell 1044, elapsed: 0.0004069805145263672
ell 1043, elapsed: 0.00046896934509277344
ell 1042, elapsed: 0.0003788471221923828
ell 1041, elapsed: 0.0006110668182373047
ell 1040, elapsed: 0.0004940032958984375
ell 1039, elapsed: 0.0006589889526367188
ell 1038, elapsed: 0.00045609474182128906
ell 1037, elapsed: 0.0006530284881591797
ell 1036, elapsed: 0.0004668235778808594
ell 1035, elapsed: 0.00045800209045410156
ell 1034, elapsed: 0.0004019737243652344
ell 1033, elapsed: 0.00046515464782714844
ell 1032, elapsed: 0.00038313865661621094
ell 1031, elapsed: 0.00045609474182128906
ell 1030, elapsed: 0.0003819465637207031
ell 1029, elapsed: 0.000453948974609375
ell 1028, elapsed: 0.0003829002380371094
ell 1027, elapsed: 0.0006070137023925781
ell 1026, elapsed: 0.00044417381286621094
ell 1025, elapsed: 0.0004551410675048828
ell 1024, elapsed: 0.0004968643188476562
ell 1023, elapsed: 0.0005462169647216797
ell 1022, elapsed: 0.0003788471221923828
ell 1021, elapsed: 0.00045013427734375
ell 1020, elapsed: 0.0003800392150878906
ell 1019, elapsed: 0.00046181678771972656
ell 1018, elapsed: 0.0003800392150878906
ell 1017, elapsed: 0.00045299530029296875
ell 1016, elapsed: 0.0005159378051757812
ell 1015, elapsed: 0.0005359649658203125
ell 1014, elapsed: 0.0003790855407714844
ell 1013, elapsed: 0.00045108795166015625
ell 1012, elapsed: 0.0003829002380371094
ell 1011, elapsed: 0.0005941390991210938
ell 1010, elapsed: 0.0004711151123046875
ell 1009, elapsed: 0.0006158351898193359
ell 1008, elapsed: 0.00044608116149902344
ell 1007, elapsed: 0.0006480216979980469
ell 1006, elapsed: 0.0004038810729980469
ell 1005, elapsed: 0.00045490264892578125
ell 1004, elapsed: 0.0005390644073486328
ell 1003, elapsed: 0.0007309913635253906
ell 1002, elapsed: 0.0005950927734375
ell 1001, elapsed: 0.00067901611328125
ell 1000, elapsed: 0.0006060600280761719
ell 999, elapsed: 0.0007350444793701172
ell 998, elapsed: 0.0004839897155761719
ell 997, elapsed: 0.00045990943908691406
ell 996, elapsed: 0.0003790855407714844
ell 995, elapsed: 0.0005731582641601562
ell 994, elapsed: 0.0004849433898925781
ell 993, elapsed: 0.0004620552062988281
ell 992, elapsed: 0.0005121231079101562
ell 991, elapsed: 0.0005769729614257812
ell 990, elapsed: 0.0003819465637207031
ell 989, elapsed: 0.0004520416259765625
ell 988, elapsed: 0.0003809928894042969
ell 987, elapsed: 0.00045680999755859375
ell 986, elapsed: 0.0003859996795654297
ell 985, elapsed: 0.0004520416259765625
ell 984, elapsed: 0.0004489421844482422
ell 983, elapsed: 0.00045680999755859375
ell 982, elapsed: 0.0003809928894042969
ell 981, elapsed: 0.0004508495330810547
ell 980, elapsed: 0.0003821849822998047
ell 979, elapsed: 0.00045108795166015625
ell 978, elapsed: 0.0003800392150878906
ell 977, elapsed: 0.00045299530029296875
ell 976, elapsed: 0.0004839897155761719
ell 975, elapsed: 0.0005900859832763672
ell 974, elapsed: 0.0003800392150878906
ell 973, elapsed: 0.0004520416259765625
ell 972, elapsed: 0.0003819465637207031
ell 971, elapsed: 0.0004489421844482422
ell 970, elapsed: 0.00037789344787597656
ell 969, elapsed: 0.0005779266357421875
ell 968, elapsed: 0.0004911422729492188
ell 967, elapsed: 0.00045800209045410156
ell 966, elapsed: 0.0003809928894042969
ell 965, elapsed: 0.00045299530029296875
ell 964, elapsed: 0.0005290508270263672
ell 963, elapsed: 0.0005359649658203125
ell 962, elapsed: 0.0004470348358154297
ell 961, elapsed: 0.0006339550018310547
ell 960, elapsed: 0.0003838539123535156
ell 959, elapsed: 0.0004611015319824219
ell 958, elapsed: 0.0003819465637207031
ell 957, elapsed: 0.0004558563232421875
ell 956, elapsed: 0.0003800392150878906
ell 955, elapsed: 0.0004558563232421875
ell 954, elapsed: 0.0003809928894042969
ell 953, elapsed: 0.0006508827209472656
ell 952, elapsed: 0.0004911422729492188
ell 951, elapsed: 0.000453948974609375
ell 950, elapsed: 0.0004780292510986328
ell 949, elapsed: 0.0005998611450195312
ell 948, elapsed: 0.00045108795166015625
ell 947, elapsed: 0.0006279945373535156
ell 946, elapsed: 0.0005519390106201172
ell 945, elapsed: 0.0005590915679931641
ell 944, elapsed: 0.0004830360412597656
ell 943, elapsed: 0.0007112026214599609
ell 942, elapsed: 0.0004317760467529297
ell 941, elapsed: 0.0005550384521484375
ell 940, elapsed: 0.0006339550018310547
ell 939, elapsed: 0.000576019287109375
ell 938, elapsed: 0.0003819465637207031
ell 937, elapsed: 0.0004589557647705078
ell 936, elapsed: 0.0005278587341308594
ell 935, elapsed: 0.0006978511810302734
ell 934, elapsed: 0.00043892860412597656
ell 933, elapsed: 0.0005319118499755859
ell 932, elapsed: 0.0003819465637207031
ell 931, elapsed: 0.0004589557647705078
ell 930, elapsed: 0.0003800392150878906
ell 929, elapsed: 0.0004551410675048828
ell 928, elapsed: 0.0004711151123046875
ell 927, elapsed: 0.0006029605865478516
ell 926, elapsed: 0.008466958999633789
ell 925, elapsed: 0.0007128715515136719
ell 924, elapsed: 0.0004119873046875
ell 923, elapsed: 0.00046896934509277344
ell 922, elapsed: 0.0003840923309326172
ell 921, elapsed: 0.0004589557647705078
ell 920, elapsed: 0.0003809928894042969
ell 919, elapsed: 0.0004551410675048828
ell 918, elapsed: 0.0003979206085205078
ell 917, elapsed: 0.00045800209045410156
ell 916, elapsed: 0.0003821849822998047
ell 915, elapsed: 0.00045800209045410156
ell 914, elapsed: 0.00038814544677734375
ell 913, elapsed: 0.00047397613525390625
ell 912, elapsed: 0.0005381107330322266
ell 911, elapsed: 0.0007410049438476562
ell 910, elapsed: 0.0003941059112548828
ell 909, elapsed: 0.00046706199645996094
ell 908, elapsed: 0.0003821849822998047
ell 907, elapsed: 0.0004630088806152344
ell 906, elapsed: 0.0003790855407714844
ell 905, elapsed: 0.0004680156707763672
ell 904, elapsed: 0.0004889965057373047
ell 903, elapsed: 0.0005919933319091797
ell 902, elapsed: 0.0003859996795654297
ell 901, elapsed: 0.00045990943908691406
ell 900, elapsed: 0.0003809928894042969
ell 899, elapsed: 0.0004680156707763672
ell 898, elapsed: 0.0003840923309326172
ell 897, elapsed: 0.0005660057067871094
ell 896, elapsed: 0.0005049705505371094
ell 895, elapsed: 0.0004620552062988281
ell 894, elapsed: 0.0005359649658203125
ell 893, elapsed: 0.0005178451538085938
ell 892, elapsed: 0.0005350112915039062
ell 891, elapsed: 0.0005061626434326172
ell 890, elapsed: 0.00045800209045410156
ell 889, elapsed: 0.00869607925415039
ell 888, elapsed: 0.0005059242248535156
ell 887, elapsed: 0.0005819797515869141
ell 886, elapsed: 0.00037407875061035156
ell 885, elapsed: 0.00044798851013183594
ell 884, elapsed: 0.0005009174346923828
ell 883, elapsed: 0.0005609989166259766
ell 882, elapsed: 0.000392913818359375
ell 881, elapsed: 0.000453948974609375
ell 880, elapsed: 0.0003788471221923828
ell 879, elapsed: 0.00045990943908691406
ell 878, elapsed: 0.0003719329833984375
ell 877, elapsed: 0.0004591941833496094
ell 876, elapsed: 0.0004780292510986328
ell 875, elapsed: 0.000743865966796875
ell 874, elapsed: 0.0003838539123535156
ell 873, elapsed: 0.0006148815155029297
ell 872, elapsed: 0.0004630088806152344
ell 871, elapsed: 0.00045108795166015625
ell 870, elapsed: 0.00045800209045410156
ell 869, elapsed: 0.0006129741668701172
ell 868, elapsed: 0.0005159378051757812
ell 867, elapsed: 0.0005290508270263672
ell 866, elapsed: 0.00039505958557128906
ell 865, elapsed: 0.0004639625549316406
ell 864, elapsed: 0.0004668235778808594
ell 863, elapsed: 0.0006051063537597656
ell 862, elapsed: 0.0003809928894042969
ell 861, elapsed: 0.00044798851013183594
ell 860, elapsed: 0.0005519390106201172
ell 859, elapsed: 0.00051116943359375
ell 858, elapsed: 0.0003800392150878906
ell 857, elapsed: 0.00045108795166015625
ell 856, elapsed: 0.0005609989166259766
ell 855, elapsed: 0.0005848407745361328
ell 854, elapsed: 0.0005478858947753906
ell 853, elapsed: 0.0007500648498535156
ell 852, elapsed: 0.0004150867462158203
ell 851, elapsed: 0.0004589557647705078
ell 850, elapsed: 0.00047206878662109375
ell 849, elapsed: 0.0005960464477539062
ell 848, elapsed: 0.0003829002380371094
ell 847, elapsed: 0.0006289482116699219
ell 846, elapsed: 0.0004429817199707031
ell 845, elapsed: 0.00045299530029296875
ell 844, elapsed: 0.0003809928894042969
ell 843, elapsed: 0.0005960464477539062
ell 842, elapsed: 0.0004398822784423828
ell 841, elapsed: 0.000453948974609375
ell 840, elapsed: 0.0003809928894042969
ell 839, elapsed: 0.00046706199645996094
ell 838, elapsed: 0.00038313865661621094
ell 837, elapsed: 0.0004620552062988281
ell 836, elapsed: 0.0003819465637207031
ell 835, elapsed: 0.0004589557647705078
ell 834, elapsed: 0.00038504600524902344
ell 833, elapsed: 0.0004658699035644531
ell 832, elapsed: 0.0003840923309326172
ell 831, elapsed: 0.0005409717559814453
ell 830, elapsed: 0.0005490779876708984
ell 829, elapsed: 0.0007040500640869141
ell 828, elapsed: 0.0005490779876708984
ell 827, elapsed: 0.0007150173187255859
ell 826, elapsed: 0.0005929470062255859
ell 825, elapsed: 0.0006399154663085938
ell 824, elapsed: 0.00038814544677734375
ell 823, elapsed: 0.00045990943908691406
ell 822, elapsed: 0.0003829002380371094
ell 821, elapsed: 0.00045299530029296875
ell 820, elapsed: 0.0003819465637207031
ell 819, elapsed: 0.0004470348358154297
ell 818, elapsed: 0.0005450248718261719
ell 817, elapsed: 0.0005090236663818359
ell 816, elapsed: 0.0003769397735595703
ell 815, elapsed: 0.0004611015319824219
ell 814, elapsed: 0.00037598609924316406
ell 813, elapsed: 0.0006389617919921875
ell 812, elapsed: 0.0005600452423095703
ell 811, elapsed: 0.0005609989166259766
ell 810, elapsed: 0.0004360675811767578
ell 809, elapsed: 0.000514984130859375
ell 808, elapsed: 0.0005879402160644531
ell 807, elapsed: 0.0006749629974365234
ell 806, elapsed: 0.0004360675811767578
ell 805, elapsed: 0.0005030632019042969
ell 804, elapsed: 0.0004439353942871094
ell 803, elapsed: 0.0005071163177490234
ell 802, elapsed: 0.0004229545593261719
ell 801, elapsed: 0.0005099773406982422
ell 800, elapsed: 0.0004980564117431641
ell 799, elapsed: 0.0007917881011962891
ell 798, elapsed: 0.0005371570587158203
ell 797, elapsed: 0.0005991458892822266
ell 796, elapsed: 0.0006999969482421875
ell 795, elapsed: 0.0008580684661865234
ell 794, elapsed: 0.0007798671722412109
ell 793, elapsed: 0.0006139278411865234
ell 792, elapsed: 0.0006928443908691406
ell 791, elapsed: 0.0006949901580810547
ell 790, elapsed: 0.0006289482116699219
ell 789, elapsed: 0.0005810260772705078
ell 788, elapsed: 0.0005080699920654297
ell 787, elapsed: 0.0005640983581542969
ell 786, elapsed: 0.0004830360412597656
ell 785, elapsed: 0.0005471706390380859
ell 784, elapsed: 0.00041604042053222656
ell 783, elapsed: 0.0005679130554199219
ell 782, elapsed: 0.0004971027374267578
ell 781, elapsed: 0.0005719661712646484
ell 780, elapsed: 0.00046706199645996094
ell 779, elapsed: 0.0005409717559814453
ell 778, elapsed: 0.0004088878631591797
ell 777, elapsed: 0.0006120204925537109
ell 776, elapsed: 0.00047707557678222656
ell 775, elapsed: 0.000553131103515625
ell 774, elapsed: 0.0003898143768310547
ell 773, elapsed: 0.0004928112030029297
ell 772, elapsed: 0.0004730224609375
ell 771, elapsed: 0.000720977783203125
ell 770, elapsed: 0.00040602684020996094
ell 769, elapsed: 0.0004971027374267578
ell 768, elapsed: 0.000408172607421875
ell 767, elapsed: 0.0004918575286865234
ell 766, elapsed: 0.0008969306945800781
ell 765, elapsed: 0.000949859619140625
ell 764, elapsed: 0.00061798095703125
ell 763, elapsed: 0.0006890296936035156
ell 762, elapsed: 0.0005748271942138672
ell 761, elapsed: 0.0008599758148193359
ell 760, elapsed: 0.0007159709930419922
ell 759, elapsed: 0.0008640289306640625
ell 758, elapsed: 0.0005359649658203125
ell 757, elapsed: 0.0004849433898925781
ell 756, elapsed: 0.0003809928894042969
ell 755, elapsed: 0.00045609474182128906
ell 754, elapsed: 0.0003769397735595703
ell 753, elapsed: 0.0005829334259033203
ell 752, elapsed: 0.0005209445953369141
ell 751, elapsed: 0.0005328655242919922
ell 750, elapsed: 0.0003769397735595703
ell 749, elapsed: 0.0004448890686035156
ell 748, elapsed: 0.00037789344787597656
ell 747, elapsed: 0.00044798851013183594
ell 746, elapsed: 0.0004749298095703125
ell 745, elapsed: 0.0006990432739257812
ell 744, elapsed: 0.00047588348388671875
ell 743, elapsed: 0.0006270408630371094
ell 742, elapsed: 0.00047516822814941406
ell 741, elapsed: 0.0005869865417480469
ell 740, elapsed: 0.0003809928894042969
ell 739, elapsed: 0.0005741119384765625
ell 738, elapsed: 0.0003879070281982422
ell 737, elapsed: 0.00045609474182128906
ell 736, elapsed: 0.00038695335388183594
ell 735, elapsed: 0.00045680999755859375
ell 734, elapsed: 0.0003800392150878906
ell 733, elapsed: 0.0004589557647705078
ell 732, elapsed: 0.0003840923309326172
ell 731, elapsed: 0.016335010528564453
ell 730, elapsed: 0.00042510032653808594
ell 729, elapsed: 0.0004909038543701172
ell 728, elapsed: 0.0003819465637207031
ell 727, elapsed: 0.0004589557647705078
ell 726, elapsed: 0.0003790855407714844
ell 725, elapsed: 0.00045013427734375
ell 724, elapsed: 0.0003781318664550781
ell 723, elapsed: 0.0008580684661865234
ell 722, elapsed: 0.0005710124969482422
ell 721, elapsed: 0.00048613548278808594
ell 720, elapsed: 0.00038504600524902344
ell 719, elapsed: 0.0005578994750976562
ell 718, elapsed: 0.0004930496215820312
ell 717, elapsed: 0.0005688667297363281
ell 716, elapsed: 0.0004761219024658203
ell 715, elapsed: 0.0007259845733642578
ell 714, elapsed: 0.0007259845733642578
ell 713, elapsed: 0.0005908012390136719
ell 712, elapsed: 0.0003898143768310547
ell 711, elapsed: 0.00047016143798828125
ell 710, elapsed: 0.00038504600524902344
ell 709, elapsed: 0.0004680156707763672
ell 708, elapsed: 0.0005059242248535156
ell 707, elapsed: 0.0005550384521484375
ell 706, elapsed: 0.0003821849822998047
ell 705, elapsed: 0.00045299530029296875
ell 704, elapsed: 0.0003859996795654297
ell 703, elapsed: 0.00045800209045410156
ell 702, elapsed: 0.0003809928894042969
ell 701, elapsed: 0.0004820823669433594
ell 700, elapsed: 0.0003840923309326172
ell 699, elapsed: 0.0004558563232421875
ell 698, elapsed: 0.0005350112915039062
ell 697, elapsed: 0.0005061626434326172
ell 696, elapsed: 0.0003800392150878906
ell 695, elapsed: 0.00045299530029296875
ell 694, elapsed: 0.00042510032653808594
ell 693, elapsed: 0.000492095947265625
ell 692, elapsed: 0.0004239082336425781
ell 691, elapsed: 0.0004620552062988281
ell 690, elapsed: 0.0003910064697265625
ell 689, elapsed: 0.00046706199645996094
ell 688, elapsed: 0.00037980079650878906
ell 687, elapsed: 0.00044918060302734375
ell 686, elapsed: 0.00039196014404296875
ell 685, elapsed: 0.00045680999755859375
ell 684, elapsed: 0.0003821849822998047
ell 683, elapsed: 0.00045108795166015625
ell 682, elapsed: 0.0004968643188476562
ell 681, elapsed: 0.00055694580078125
ell 680, elapsed: 0.00039005279541015625
ell 679, elapsed: 0.0004570484161376953
ell 678, elapsed: 0.0004220008850097656
ell 677, elapsed: 0.00045299530029296875
ell 676, elapsed: 0.00038909912109375
ell 675, elapsed: 0.0005688667297363281
ell 674, elapsed: 0.0004608631134033203
ell 673, elapsed: 0.0004489421844482422
ell 672, elapsed: 0.0003788471221923828
ell 671, elapsed: 0.0006468296051025391
ell 670, elapsed: 0.00043582916259765625
ell 669, elapsed: 0.00045800209045410156
ell 668, elapsed: 0.0005199909210205078
ell 667, elapsed: 0.0005719661712646484
ell 666, elapsed: 0.00038504600524902344
ell 665, elapsed: 0.0006711483001708984
ell 664, elapsed: 0.00044608116149902344
ell 663, elapsed: 0.00048089027404785156
ell 662, elapsed: 0.00037407875061035156
ell 661, elapsed: 0.00048279762268066406
ell 660, elapsed: 0.0003628730773925781
ell 659, elapsed: 0.0004870891571044922
ell 658, elapsed: 0.0003769397735595703
ell 657, elapsed: 0.0004630088806152344
ell 656, elapsed: 0.0003769397735595703
ell 655, elapsed: 0.0004601478576660156
ell 654, elapsed: 0.00037789344787597656
ell 653, elapsed: 0.00045990943908691406
ell 652, elapsed: 0.0003719329833984375
ell 651, elapsed: 0.0004658699035644531
ell 650, elapsed: 0.0003769397735595703
ell 649, elapsed: 0.0004730224609375
ell 648, elapsed: 0.0004298686981201172
ell 647, elapsed: 0.00045800209045410156
ell 646, elapsed: 0.00037288665771484375
ell 645, elapsed: 0.0004589557647705078
ell 644, elapsed: 0.0003769397735595703
ell 643, elapsed: 0.0006191730499267578
ell 642, elapsed: 0.0004239082336425781
ell 641, elapsed: 0.0005002021789550781
ell 640, elapsed: 0.0003829002380371094
ell 639, elapsed: 0.0004649162292480469
ell 638, elapsed: 0.0003790855407714844
ell 637, elapsed: 0.0006480216979980469
ell 636, elapsed: 0.0004088878631591797
ell 635, elapsed: 0.00045609474182128906
ell 634, elapsed: 0.0003821849822998047
ell 633, elapsed: 0.0005030632019042969
ell 632, elapsed: 0.00045990943908691406
ell 631, elapsed: 0.0006251335144042969
ell 630, elapsed: 0.0003712177276611328
ell 629, elapsed: 0.0004630088806152344
ell 628, elapsed: 0.0003750324249267578
ell 627, elapsed: 0.0004639625549316406
ell 626, elapsed: 0.00043010711669921875
ell 625, elapsed: 0.00045490264892578125
ell 624, elapsed: 0.00037789344787597656
ell 623, elapsed: 0.0007009506225585938
ell 622, elapsed: 0.0003790855407714844
ell 621, elapsed: 0.0006451606750488281
ell 620, elapsed: 0.0004558563232421875
ell 619, elapsed: 0.0005109310150146484
ell 618, elapsed: 0.0003750324249267578
ell 617, elapsed: 0.00045800209045410156
ell 616, elapsed: 0.0003819465637207031
ell 615, elapsed: 0.0005161762237548828
ell 614, elapsed: 0.00037598609924316406
ell 613, elapsed: 0.00045990943908691406
ell 612, elapsed: 0.00037407875061035156
ell 611, elapsed: 0.00047779083251953125
ell 610, elapsed: 0.000370025634765625
ell 609, elapsed: 0.0004608631134033203
ell 608, elapsed: 0.0004591941833496094
ell 607, elapsed: 0.0007200241088867188
ell 606, elapsed: 0.00045299530029296875
ell 605, elapsed: 0.0006000995635986328
ell 604, elapsed: 0.0005490779876708984
ell 603, elapsed: 0.0004589557647705078
ell 602, elapsed: 0.00051116943359375
ell 601, elapsed: 0.0005779266357421875
ell 600, elapsed: 0.0004611015319824219
ell 599, elapsed: 0.0006060600280761719
ell 598, elapsed: 0.00047898292541503906
ell 597, elapsed: 0.0008909702301025391
ell 596, elapsed: 0.0005280971527099609
ell 595, elapsed: 0.0008709430694580078
ell 594, elapsed: 0.00048613548278808594
ell 593, elapsed: 0.0007619857788085938
ell 592, elapsed: 0.0005371570587158203
ell 591, elapsed: 0.0007100105285644531
ell 590, elapsed: 0.00037217140197753906
ell 589, elapsed: 0.0004630088806152344
ell 588, elapsed: 0.000370025634765625
ell 587, elapsed: 0.0004620552062988281
ell 586, elapsed: 0.0003769397735595703
ell 585, elapsed: 0.0005857944488525391
ell 584, elapsed: 0.00037598609924316406
ell 583, elapsed: 0.0004608631134033203
ell 582, elapsed: 0.00037407875061035156
ell 581, elapsed: 0.00045680999755859375
ell 580, elapsed: 0.0003781318664550781
ell 579, elapsed: 0.0004630088806152344
ell 578, elapsed: 0.0004630088806152344
ell 577, elapsed: 0.0007128715515136719
ell 576, elapsed: 0.00037598609924316406
ell 575, elapsed: 0.00046896934509277344
ell 574, elapsed: 0.0004971027374267578
ell 573, elapsed: 0.0005688667297363281
ell 572, elapsed: 0.00037384033203125
ell 571, elapsed: 0.00045609474182128906
ell 570, elapsed: 0.0005018711090087891
ell 569, elapsed: 0.00047087669372558594
ell 568, elapsed: 0.00037407875061035156
ell 567, elapsed: 0.00045609474182128906
ell 566, elapsed: 0.00047016143798828125
ell 565, elapsed: 0.0005929470062255859
ell 564, elapsed: 0.00036215782165527344
ell 563, elapsed: 0.00043892860412597656
ell 562, elapsed: 0.0005078315734863281
ell 561, elapsed: 0.0004630088806152344
ell 560, elapsed: 0.0003619194030761719
ell 559, elapsed: 0.0006170272827148438
ell 558, elapsed: 0.0004630088806152344
ell 557, elapsed: 0.0006511211395263672
ell 556, elapsed: 0.00035500526428222656
ell 555, elapsed: 0.0005350112915039062
ell 554, elapsed: 0.0003688335418701172
ell 553, elapsed: 0.0004608631134033203
ell 552, elapsed: 0.0003681182861328125
ell 551, elapsed: 0.0004451274871826172
ell 550, elapsed: 0.0003750324249267578
ell 549, elapsed: 0.00045800209045410156
ell 548, elapsed: 0.0003809928894042969
ell 547, elapsed: 0.0004799365997314453
ell 546, elapsed: 0.00037789344787597656
ell 545, elapsed: 0.00045013427734375
ell 544, elapsed: 0.0003788471221923828
ell 543, elapsed: 0.0005970001220703125
ell 542, elapsed: 0.00045609474182128906
ell 541, elapsed: 0.00055694580078125
ell 540, elapsed: 0.0005071163177490234
ell 539, elapsed: 0.0005500316619873047
ell 538, elapsed: 0.0005049705505371094
ell 537, elapsed: 0.0004489421844482422
ell 536, elapsed: 0.0005190372467041016
ell 535, elapsed: 0.0005419254302978516
ell 534, elapsed: 0.0003840923309326172
ell 533, elapsed: 0.00047707557678222656
ell 532, elapsed: 0.00037598609924316406
ell 531, elapsed: 0.0004420280456542969
ell 530, elapsed: 0.0003559589385986328
ell 529, elapsed: 0.0004329681396484375
ell 528, elapsed: 0.0003600120544433594
ell 527, elapsed: 0.0004980564117431641
ell 526, elapsed: 0.0003578662872314453
ell 525, elapsed: 0.00047516822814941406
ell 524, elapsed: 0.0004119873046875
ell 523, elapsed: 0.00045800209045410156
ell 522, elapsed: 0.0005259513854980469
ell 521, elapsed: 0.0005209445953369141
ell 520, elapsed: 0.0003781318664550781
ell 519, elapsed: 0.00045990943908691406
ell 518, elapsed: 0.00037598609924316406
ell 517, elapsed: 0.00045013427734375
ell 516, elapsed: 0.00045800209045410156
ell 515, elapsed: 0.0004470348358154297
ell 514, elapsed: 0.0003590583801269531
ell 513, elapsed: 0.0004642009735107422
ell 512, elapsed: 0.00038814544677734375
ell 511, elapsed: 0.0006580352783203125
ell 510, elapsed: 0.0004038810729980469
ell 509, elapsed: 0.00043702125549316406
ell 508, elapsed: 0.00044798851013183594
ell 507, elapsed: 0.0004830360412597656
ell 506, elapsed: 0.0003647804260253906
ell 505, elapsed: 0.0004918575286865234
ell 504, elapsed: 0.0003571510314941406
ell 503, elapsed: 0.0004780292510986328
ell 502, elapsed: 0.0005340576171875
ell 501, elapsed: 0.0005939006805419922
ell 500, elapsed: 0.0003609657287597656
ell 499, elapsed: 0.0005099773406982422
ell 498, elapsed: 0.0003509521484375
ell 497, elapsed: 0.00043010711669921875
ell 496, elapsed: 0.0003440380096435547
ell 495, elapsed: 0.0004279613494873047
ell 494, elapsed: 0.00034499168395996094
ell 493, elapsed: 0.00041604042053222656
ell 492, elapsed: 0.0005059242248535156
ell 491, elapsed: 0.0005941390991210938
ell 490, elapsed: 0.00033783912658691406
ell 489, elapsed: 0.00041604042053222656
ell 488, elapsed: 0.0003609657287597656
ell 487, elapsed: 0.00044798851013183594
ell 486, elapsed: 0.0003619194030761719
ell 485, elapsed: 0.00043892860412597656
ell 484, elapsed: 0.0005431175231933594
ell 483, elapsed: 0.0005991458892822266
ell 482, elapsed: 0.0004730224609375
ell 481, elapsed: 0.0006020069122314453
ell 480, elapsed: 0.0005209445953369141
ell 479, elapsed: 0.0005559921264648438
ell 478, elapsed: 0.0003750324249267578
ell 477, elapsed: 0.0006730556488037109
ell 476, elapsed: 0.0004658699035644531
ell 475, elapsed: 0.0006809234619140625
ell 474, elapsed: 0.00043511390686035156
ell 473, elapsed: 0.0005309581756591797
ell 472, elapsed: 0.00037479400634765625
ell 471, elapsed: 0.000659942626953125
ell 470, elapsed: 0.0005350112915039062
ell 469, elapsed: 0.0005779266357421875
ell 468, elapsed: 0.0003781318664550781
ell 467, elapsed: 0.0005831718444824219
ell 466, elapsed: 0.00047588348388671875
ell 465, elapsed: 0.0004448890686035156
ell 464, elapsed: 0.0006208419799804688
ell 463, elapsed: 0.0005228519439697266
ell 462, elapsed: 0.00037407875061035156
ell 461, elapsed: 0.0004439353942871094
ell 460, elapsed: 0.00037789344787597656
ell 459, elapsed: 0.0004520416259765625
ell 458, elapsed: 0.0003790855407714844
ell 457, elapsed: 0.0004508495330810547
ell 456, elapsed: 0.0006520748138427734
ell 455, elapsed: 0.0007541179656982422
ell 454, elapsed: 0.0005638599395751953
ell 453, elapsed: 0.0005970001220703125
ell 452, elapsed: 0.0003769397735595703
ell 451, elapsed: 0.0005438327789306641
ell 450, elapsed: 0.00039196014404296875
ell 449, elapsed: 0.00046896934509277344
ell 448, elapsed: 0.0003800392150878906
ell 447, elapsed: 0.00045299530029296875
ell 446, elapsed: 0.0003788471221923828
ell 445, elapsed: 0.00045299530029296875
ell 444, elapsed: 0.0003769397735595703
ell 443, elapsed: 0.0004520416259765625
ell 442, elapsed: 0.0003788471221923828
ell 441, elapsed: 0.0004398822784423828
ell 440, elapsed: 0.0004639625549316406
ell 439, elapsed: 0.0005769729614257812
ell 438, elapsed: 0.0003628730773925781
ell 437, elapsed: 0.0004520416259765625
ell 436, elapsed: 0.0003681182861328125
ell 435, elapsed: 0.00044989585876464844
ell 434, elapsed: 0.0004820823669433594
ell 433, elapsed: 0.0004508495330810547
ell 432, elapsed: 0.0003619194030761719
ell 431, elapsed: 0.0004360675811767578
ell 430, elapsed: 0.0003650188446044922
ell 429, elapsed: 0.0004451274871826172
ell 428, elapsed: 0.0003681182861328125
ell 427, elapsed: 0.0004382133483886719
ell 426, elapsed: 0.00045299530029296875
ell 425, elapsed: 0.0006759166717529297
ell 424, elapsed: 0.0003769397735595703
ell 423, elapsed: 0.00045299530029296875
ell 422, elapsed: 0.00036907196044921875
ell 421, elapsed: 0.0004508495330810547
ell 420, elapsed: 0.00036597251892089844
ell 419, elapsed: 0.00045108795166015625
ell 418, elapsed: 0.0006079673767089844
ell 417, elapsed: 0.0005018711090087891
ell 416, elapsed: 0.0003628730773925781
ell 415, elapsed: 0.0006158351898193359
ell 414, elapsed: 0.0005481243133544922
ell 413, elapsed: 0.0005729198455810547
ell 412, elapsed: 0.0003769397735595703
ell 411, elapsed: 0.0005660057067871094
ell 410, elapsed: 0.000370025634765625
ell 409, elapsed: 0.0006220340728759766
ell 408, elapsed: 0.0004410743713378906
ell 407, elapsed: 0.00045490264892578125
ell 406, elapsed: 0.0003790855407714844
ell 405, elapsed: 0.00045990943908691406
ell 404, elapsed: 0.00037407875061035156
ell 403, elapsed: 0.0005738735198974609
ell 402, elapsed: 0.0003781318664550781
ell 401, elapsed: 0.0004620552062988281
ell 400, elapsed: 0.0003769397735595703
ell 399, elapsed: 0.00045299530029296875
ell 398, elapsed: 0.0003809928894042969
ell 397, elapsed: 0.00044918060302734375
ell 396, elapsed: 0.00037598609924316406
ell 395, elapsed: 0.00055694580078125
ell 394, elapsed: 0.0003809928894042969
ell 393, elapsed: 0.00045990943908691406
ell 392, elapsed: 0.0003769397735595703
ell 391, elapsed: 0.000453948974609375
ell 390, elapsed: 0.0003790855407714844
ell 389, elapsed: 0.0004520416259765625
ell 388, elapsed: 0.0003790855407714844
ell 387, elapsed: 0.0005390644073486328
ell 386, elapsed: 0.00037980079650878906
ell 385, elapsed: 0.0004551410675048828
ell 384, elapsed: 0.0003750324249267578
ell 383, elapsed: 0.0004520416259765625
ell 382, elapsed: 0.00037789344787597656
ell 381, elapsed: 0.00045299530029296875
ell 380, elapsed: 0.0003781318664550781
ell 379, elapsed: 0.0004520416259765625
ell 378, elapsed: 0.00036406517028808594
ell 377, elapsed: 0.0006248950958251953
ell 376, elapsed: 0.0005960464477539062
ell 375, elapsed: 0.0005049705505371094
ell 374, elapsed: 0.0003669261932373047
ell 373, elapsed: 0.0006248950958251953
ell 372, elapsed: 0.0005118846893310547
ell 371, elapsed: 0.0004620552062988281
ell 370, elapsed: 0.00046181678771972656
ell 369, elapsed: 0.0006020069122314453
ell 368, elapsed: 0.0003719329833984375
ell 367, elapsed: 0.0004680156707763672
ell 366, elapsed: 0.00037598609924316406
ell 365, elapsed: 0.00045299530029296875
ell 364, elapsed: 0.0004699230194091797
ell 363, elapsed: 0.0004558563232421875
ell 362, elapsed: 0.0003790855407714844
ell 361, elapsed: 0.0004611015319824219
ell 360, elapsed: 0.000370025634765625
ell 359, elapsed: 0.0004520416259765625
ell 358, elapsed: 0.00037097930908203125
ell 357, elapsed: 0.00045990943908691406
ell 356, elapsed: 0.00038814544677734375
ell 355, elapsed: 0.0004570484161376953
ell 354, elapsed: 0.00047087669372558594
ell 353, elapsed: 0.0006029605865478516
ell 352, elapsed: 0.00037598609924316406
ell 351, elapsed: 0.0004458427429199219
ell 350, elapsed: 0.00037789344787597656
ell 349, elapsed: 0.0006418228149414062
ell 348, elapsed: 0.0004029273986816406
ell 347, elapsed: 0.0005660057067871094
ell 346, elapsed: 0.0005018711090087891
ell 345, elapsed: 0.00045490264892578125
ell 344, elapsed: 0.00037097930908203125
ell 343, elapsed: 0.0004589557647705078
ell 342, elapsed: 0.00037407875061035156
ell 341, elapsed: 0.00047087669372558594
ell 340, elapsed: 0.000370025634765625
ell 339, elapsed: 0.00045299530029296875
ell 338, elapsed: 0.0003790855407714844
ell 337, elapsed: 0.00045609474182128906
ell 336, elapsed: 0.00037384033203125
ell 335, elapsed: 0.000453948974609375
ell 334, elapsed: 0.00036787986755371094
ell 333, elapsed: 0.0005869865417480469
ell 332, elapsed: 0.0004489421844482422
ell 331, elapsed: 0.0006389617919921875
ell 330, elapsed: 0.00047397613525390625
ell 329, elapsed: 0.0006339550018310547
ell 328, elapsed: 0.0005898475646972656
ell 327, elapsed: 0.0005269050598144531
ell 326, elapsed: 0.0003771781921386719
ell 325, elapsed: 0.00045800209045410156
ell 324, elapsed: 0.0003719329833984375
ell 323, elapsed: 0.0004458427429199219
ell 322, elapsed: 0.0004980564117431641
ell 321, elapsed: 0.0006291866302490234
ell 320, elapsed: 0.00037789344787597656
ell 319, elapsed: 0.0005919933319091797
ell 318, elapsed: 0.0004711151123046875
ell 317, elapsed: 0.0006341934204101562
ell 316, elapsed: 0.0004131793975830078
ell 315, elapsed: 0.0006158351898193359
ell 314, elapsed: 0.00043511390686035156
ell 313, elapsed: 0.00044918060302734375
ell 312, elapsed: 0.00038695335388183594
ell 311, elapsed: 0.0006380081176757812
ell 310, elapsed: 0.00041604042053222656
ell 309, elapsed: 0.0006499290466308594
ell 308, elapsed: 0.0005249977111816406
ell 307, elapsed: 0.0006780624389648438
ell 306, elapsed: 0.0005168914794921875
ell 305, elapsed: 0.00045609474182128906
ell 304, elapsed: 0.00037288665771484375
ell 303, elapsed: 0.00045490264892578125
ell 302, elapsed: 0.00037407875061035156
ell 301, elapsed: 0.0004611015319824219
ell 300, elapsed: 0.0003769397735595703
ell 299, elapsed: 0.0004570484161376953
ell 298, elapsed: 0.0003769397735595703
ell 297, elapsed: 0.0004608631134033203
ell 296, elapsed: 0.00038504600524902344
ell 295, elapsed: 0.00045800209045410156
ell 294, elapsed: 0.0003750324249267578
ell 293, elapsed: 0.00045800209045410156
ell 292, elapsed: 0.00037789344787597656
ell 291, elapsed: 0.0004620552062988281
ell 290, elapsed: 0.00037598609924316406
ell 289, elapsed: 0.000492095947265625
ell 288, elapsed: 0.0003769397735595703
ell 287, elapsed: 0.00045800209045410156
ell 286, elapsed: 0.0003612041473388672
ell 285, elapsed: 0.0004630088806152344
ell 284, elapsed: 0.00037097930908203125
ell 283, elapsed: 0.0005891323089599609
ell 282, elapsed: 0.0004570484161376953
ell 281, elapsed: 0.0005118846893310547
ell 280, elapsed: 0.0003681182861328125
ell 279, elapsed: 0.0004601478576660156
ell 278, elapsed: 0.00037598609924316406
ell 277, elapsed: 0.0004439353942871094
ell 276, elapsed: 0.00036406517028808594
ell 275, elapsed: 0.0004558563232421875
ell 274, elapsed: 0.00036787986755371094
ell 273, elapsed: 0.0004858970642089844
ell 272, elapsed: 0.0005648136138916016
ell 271, elapsed: 0.0005319118499755859
ell 270, elapsed: 0.0003628730773925781
ell 269, elapsed: 0.00046896934509277344
ell 268, elapsed: 0.0003809928894042969
ell 267, elapsed: 0.0005650520324707031
ell 266, elapsed: 0.0005719661712646484
ell 265, elapsed: 0.0005941390991210938
ell 264, elapsed: 0.0004780292510986328
ell 263, elapsed: 0.000553131103515625
ell 262, elapsed: 0.000453948974609375
ell 261, elapsed: 0.0007979869842529297
ell 260, elapsed: 0.0004029273986816406
ell 259, elapsed: 0.0004780292510986328
ell 258, elapsed: 0.00039505958557128906
ell 257, elapsed: 0.0004639625549316406
ell 256, elapsed: 0.0003960132598876953
ell 255, elapsed: 0.0006680488586425781
ell 254, elapsed: 0.0003991127014160156
ell 253, elapsed: 0.0005810260772705078
ell 252, elapsed: 0.0005099773406982422
ell 251, elapsed: 0.0006308555603027344
ell 250, elapsed: 0.0005588531494140625
ell 249, elapsed: 0.0005929470062255859
ell 248, elapsed: 0.000392913818359375
ell 247, elapsed: 0.0006411075592041016
ell 246, elapsed: 0.0005168914794921875
ell 245, elapsed: 0.0006630420684814453
ell 244, elapsed: 0.0004558563232421875
ell 243, elapsed: 0.0006690025329589844
ell 242, elapsed: 0.00041794776916503906
ell 241, elapsed: 0.0004620552062988281
ell 240, elapsed: 0.0005459785461425781
ell 239, elapsed: 0.0005269050598144531
ell 238, elapsed: 0.0003941059112548828
ell 237, elapsed: 0.0006458759307861328
ell 236, elapsed: 0.00040793418884277344
ell 235, elapsed: 0.0004558563232421875
ell 234, elapsed: 0.0004999637603759766
ell 233, elapsed: 0.0005929470062255859
ell 232, elapsed: 0.0003859996795654297
ell 231, elapsed: 0.0005769729614257812
ell 230, elapsed: 0.0005171298980712891
ell 229, elapsed: 0.0004749298095703125
ell 228, elapsed: 0.0005459785461425781
ell 227, elapsed: 0.0006229877471923828
ell 226, elapsed: 0.000576019287109375
ell 225, elapsed: 0.0006251335144042969
ell 224, elapsed: 0.0005688667297363281
ell 223, elapsed: 0.0007069110870361328
ell 222, elapsed: 0.0004248619079589844
ell 221, elapsed: 0.00047898292541503906
ell 220, elapsed: 0.0005238056182861328
ell 219, elapsed: 0.0007040500640869141
ell 218, elapsed: 0.0004849433898925781
ell 217, elapsed: 0.0004699230194091797
ell 216, elapsed: 0.0003859996795654297
ell 215, elapsed: 0.0006749629974365234
ell 214, elapsed: 0.0004591941833496094
ell 213, elapsed: 0.0006251335144042969
ell 212, elapsed: 0.00046706199645996094
ell 211, elapsed: 0.00047087669372558594
ell 210, elapsed: 0.0004928112030029297
ell 209, elapsed: 0.0005829334259033203
ell 208, elapsed: 0.0004930496215820312
ell 207, elapsed: 0.0006358623504638672
ell 206, elapsed: 0.0005450248718261719
ell 205, elapsed: 0.0006380081176757812
ell 204, elapsed: 0.00039005279541015625
ell 203, elapsed: 0.0004601478576660156
ell 202, elapsed: 0.0003809928894042969
ell 201, elapsed: 0.00045299530029296875
ell 200, elapsed: 0.00037789344787597656
ell 199, elapsed: 0.0005829334259033203
ell 198, elapsed: 0.0005052089691162109
ell 197, elapsed: 0.0006129741668701172
ell 196, elapsed: 0.0004658699035644531
ell 195, elapsed: 0.0005781650543212891
ell 194, elapsed: 0.0006010532379150391
ell 193, elapsed: 0.0005929470062255859
ell 192, elapsed: 0.0003859996795654297
ell 191, elapsed: 0.0006120204925537109
ell 190, elapsed: 0.0004470348358154297
ell 189, elapsed: 0.0005979537963867188
ell 188, elapsed: 0.0004401206970214844
ell 187, elapsed: 0.0004520416259765625
ell 186, elapsed: 0.0004949569702148438
ell 185, elapsed: 0.0007109642028808594
ell 184, elapsed: 0.00043702125549316406
ell 183, elapsed: 0.0004558563232421875
ell 182, elapsed: 0.0003790855407714844
ell 181, elapsed: 0.0005631446838378906
ell 180, elapsed: 0.0004928112030029297
ell 179, elapsed: 0.00047278404235839844
ell 178, elapsed: 0.0003879070281982422
ell 177, elapsed: 0.0004601478576660156
ell 176, elapsed: 0.0003769397735595703
ell 175, elapsed: 0.0004589557647705078
ell 174, elapsed: 0.00038313865661621094
ell 173, elapsed: 0.0006670951843261719
ell 172, elapsed: 0.0004220008850097656
ell 171, elapsed: 0.0005199909210205078
ell 170, elapsed: 0.0005550384521484375
ell 169, elapsed: 0.0005199909210205078
ell 168, elapsed: 0.0005578994750976562
ell 167, elapsed: 0.0005321502685546875
ell 166, elapsed: 0.00037598609924316406
ell 165, elapsed: 0.0006501674652099609
ell 164, elapsed: 0.0005209445953369141
ell 163, elapsed: 0.00045299530029296875
ell 162, elapsed: 0.00047516822814941406
ell 161, elapsed: 0.0007081031799316406
ell 160, elapsed: 0.0005660057067871094
ell 159, elapsed: 0.0005719661712646484
ell 158, elapsed: 0.00041604042053222656
ell 157, elapsed: 0.00045609474182128906
ell 156, elapsed: 0.0003790855407714844
ell 155, elapsed: 0.00044989585876464844
ell 154, elapsed: 0.0005328655242919922
ell 153, elapsed: 0.0005309581756591797
ell 152, elapsed: 0.0005509853363037109
ell 151, elapsed: 0.0005331039428710938
ell 150, elapsed: 0.0003829002380371094
ell 149, elapsed: 0.0004558563232421875
ell 148, elapsed: 0.0004849433898925781
ell 147, elapsed: 0.0005850791931152344
ell 146, elapsed: 0.00046515464782714844
ell 145, elapsed: 0.0005908012390136719
ell 144, elapsed: 0.0003750324249267578
ell 143, elapsed: 0.00047206878662109375
ell 142, elapsed: 0.0003800392150878906
ell 141, elapsed: 0.00045609474182128906
ell 140, elapsed: 0.0004470348358154297
ell 139, elapsed: 0.0006251335144042969
ell 138, elapsed: 0.00046896934509277344
ell 137, elapsed: 0.0007190704345703125
ell 136, elapsed: 0.00043010711669921875
ell 135, elapsed: 0.0005509853363037109
ell 134, elapsed: 0.0005919933319091797
ell 133, elapsed: 0.000698089599609375
ell 132, elapsed: 0.00047206878662109375
ell 131, elapsed: 0.0004627704620361328
ell 130, elapsed: 0.00039696693420410156
ell 129, elapsed: 0.0005490779876708984
ell 128, elapsed: 0.0005178451538085938
ell 127, elapsed: 0.00045490264892578125
ell 126, elapsed: 0.0003719329833984375
ell 125, elapsed: 0.0005710124969482422
ell 124, elapsed: 0.0005009174346923828
ell 123, elapsed: 0.0006349086761474609
ell 122, elapsed: 0.0004489421844482422
ell 121, elapsed: 0.0004611015319824219
ell 120, elapsed: 0.0004570484161376953
ell 119, elapsed: 0.0006430149078369141
ell 118, elapsed: 0.0003769397735595703
ell 117, elapsed: 0.00045490264892578125
ell 116, elapsed: 0.00037288665771484375
ell 115, elapsed: 0.00061798095703125
ell 114, elapsed: 0.00044989585876464844
ell 113, elapsed: 0.0005838871002197266
ell 112, elapsed: 0.0004870891571044922
ell 111, elapsed: 0.0006411075592041016
ell 110, elapsed: 0.0005590915679931641
ell 109, elapsed: 0.0005791187286376953
ell 108, elapsed: 0.00037598609924316406
ell 107, elapsed: 0.00045609474182128906
ell 106, elapsed: 0.0003769397735595703
ell 105, elapsed: 0.00044798851013183594
ell 104, elapsed: 0.0003769397735595703
ell 103, elapsed: 0.0006392002105712891
ell 102, elapsed: 0.0004100799560546875
ell 101, elapsed: 0.0004851818084716797
ell 100, elapsed: 0.0003762245178222656
ell 99, elapsed: 0.0005819797515869141
ell 98, elapsed: 0.0005190372467041016
ell 97, elapsed: 0.0004620552062988281
ell 96, elapsed: 0.0003771781921386719
ell 95, elapsed: 0.0006399154663085938
ell 94, elapsed: 0.00043201446533203125
ell 93, elapsed: 0.0005631446838378906
ell 92, elapsed: 0.0004928112030029297
ell 91, elapsed: 0.00045609474182128906
ell 90, elapsed: 0.0005590915679931641
ell 89, elapsed: 0.0005700588226318359
ell 88, elapsed: 0.0005049705505371094
ell 87, elapsed: 0.0006659030914306641
ell 86, elapsed: 0.0005419254302978516
ell 85, elapsed: 0.0006310939788818359
ell 84, elapsed: 0.000514984130859375
ell 83, elapsed: 0.0005619525909423828
ell 82, elapsed: 0.0003840923309326172
ell 81, elapsed: 0.0005478858947753906
ell 80, elapsed: 0.0003960132598876953
ell 79, elapsed: 0.0004661083221435547
ell 78, elapsed: 0.0003681182861328125
ell 77, elapsed: 0.0004291534423828125
ell 76, elapsed: 0.0003540515899658203
ell 75, elapsed: 0.000431060791015625
ell 74, elapsed: 0.0003540515899658203
ell 73, elapsed: 0.000431060791015625
ell 72, elapsed: 0.0004630088806152344
ell 71, elapsed: 0.00043511390686035156
ell 70, elapsed: 0.0003559589385986328
ell 69, elapsed: 0.00044798851013183594
ell 68, elapsed: 0.00037288665771484375
ell 67, elapsed: 0.0004489421844482422
ell 66, elapsed: 0.0211179256439209
ell 65, elapsed: 0.0006248950958251953
ell 64, elapsed: 0.00039505958557128906
ell 63, elapsed: 0.0004849433898925781
ell 62, elapsed: 0.0003619194030761719
ell 61, elapsed: 0.0004601478576660156
ell 60, elapsed: 0.00037407875061035156
ell 59, elapsed: 0.0004589557647705078
ell 58, elapsed: 0.00039386749267578125
ell 57, elapsed: 0.0005750656127929688
ell 56, elapsed: 0.0005631446838378906
ell 55, elapsed: 0.0007109642028808594
ell 54, elapsed: 0.0004699230194091797
ell 53, elapsed: 0.0006661415100097656
ell 52, elapsed: 0.0005850791931152344
ell 51, elapsed: 0.0006458759307861328
ell 50, elapsed: 0.000392913818359375
ell 49, elapsed: 0.0004639625549316406
ell 48, elapsed: 0.0005061626434326172
ell 47, elapsed: 0.0006089210510253906
ell 46, elapsed: 0.0003731250762939453
ell 45, elapsed: 0.0006289482116699219
ell 44, elapsed: 0.0004220008850097656
ell 43, elapsed: 0.0004699230194091797
ell 42, elapsed: 0.0003669261932373047
ell 41, elapsed: 0.0005970001220703125
ell 40, elapsed: 0.0004470348358154297
ell 39, elapsed: 0.00046181678771972656
ell 38, elapsed: 0.00037288665771484375
ell 37, elapsed: 0.00048804283142089844
ell 36, elapsed: 0.00037598609924316406
ell 35, elapsed: 0.0005629062652587891
ell 34, elapsed: 0.0004839897155761719
ell 33, elapsed: 0.00045800209045410156
ell 32, elapsed: 0.0003800392150878906
ell 31, elapsed: 0.0004570484161376953
ell 30, elapsed: 0.00036597251892089844
ell 29, elapsed: 0.0006070137023925781
ell 28, elapsed: 0.000598907470703125
ell 27, elapsed: 0.0006108283996582031
ell 26, elapsed: 0.000370025634765625
ell 25, elapsed: 0.00047397613525390625
ell 24, elapsed: 0.00036597251892089844
ell 23, elapsed: 0.0004658699035644531
ell 22, elapsed: 0.00038814544677734375
ell 21, elapsed: 0.00046706199645996094
ell 20, elapsed: 0.0005228519439697266
ell 19, elapsed: 0.0029289722442626953
ell 18, elapsed: 0.0005891323089599609
ell 17, elapsed: 0.0006561279296875
ell 16, elapsed: 0.0003879070281982422
ell 15, elapsed: 0.0006608963012695312
ell 14, elapsed: 0.0006120204925537109
ell 13, elapsed: 0.000823974609375
ell 12, elapsed: 0.000492095947265625
ell 11, elapsed: 0.0007910728454589844
ell 10, elapsed: 0.0005691051483154297
ell 9, elapsed: 0.0008361339569091797
ell 8, elapsed: 0.00047516822814941406
ell 7, elapsed: 0.0006470680236816406
ell 6, elapsed: 0.0005891323089599609
ell 5, elapsed: 0.0007119178771972656
ell 4, elapsed: 0.0005979537963867188
ell 3, elapsed: 0.00074005126953125
ell 2, elapsed: 0.0007679462432861328
ell 1, elapsed: 0.0007419586181640625
ell 0, elapsed: 0.0006129741668701172
  0.905775 seconds (56.97 k allocations: 2.783 MiB, 2.26% gc time)
elapsed: 0.0009679794311523438
step:          0.080401 sec (0 allocations: 0 byte, 0.0% gc time)
swapping:      0.000921 sec (0 allocations: 0 byte, 0.0% gc time)
calc_Mellell!: 0.011066 sec (0 allocations: 0 byte, 0.0% gc time)
  t0 :  0.003259 sec (0 allocations: 0 byte, 0.0% gc time)
  tm2 : 0.097025 sec (0 allocations: 0 byte, 0.0% gc time)
  tm2s: 0.002132 sec (0 allocations: 0 byte, 0.0% gc time)
  tm4 : 0.262238 sec (0 allocations: 0 byte, 0.0% gc time)
  tp2 : 0.0 sec (0 allocations: 0 byte, 0.0% gc time)
  tp2s: 0.0 sec (0 allocations: 0 byte, 0.0% gc time)
  tp4 : 0.0 sec (0 allocations: 0 byte, 0.0% gc time)
calc_wtdll!:   0.384169 sec (9.879 k allocations: 1.044 MB, 0.0% gc time)
calc_wljj!:    0.046718 sec (689 allocations: 10.766 KB, 0.0% gc time)
mult_prefac!:  0.0 sec (0 allocations: 0 byte, 0.0% gc time)
convert:       0.0 sec (0 allocations: 0 byte, 0.0% gc time)
write:         0.063266 sec (0 allocations: 0 byte, 0.0% gc time)
test_rand_2f1: 0.0 sec (0 allocations: 0 byte, 0.0% gc time)
Closing outfile out/Ml21-cache.bin...   0.020450 seconds
  0.000325 seconds (52 allocations: 28.297 KiB)
make_phi():   0.002310 seconds (8.20 k allocations: 238.016 KiB)
  0.191529 seconds (146.69 k allocations: 3.629 MiB)
tskip:       0.001198 sec (0 allocations: 0 byte, 0.0% gc time)
tread:       0.022912 sec (20 allocations: 10.703 KB, 0.0% gc time)
tmultphi:    0.024169 sec (0 allocations: 0 byte, 0.0% gc time)
tbrfft:      0.047091 sec (9.592 k allocations: 449.625 KB, 0.0% gc time)
tmultprefac: 0.045882 sec (0 allocations: 0 byte, 0.0% gc time)
toutfunc:    0.048395 sec (129.905 k allocations: 2.421 MB, 0.0% gc time)
Testing R=1.0 ... passed
Calculating fmax: 
  dlrec    = 4
  dlrecRg1 = -4
  q=1.1, R=0.9:	  0.608760 seconds (149.41 k allocations: 69.863 MiB, 2.79% gc time)

  0.609124 seconds (149.48 k allocations: 69.895 MiB, 2.79% gc time)
ℓ = 1202
Δℓ = 4
ΔℓRg1 = -4
N = 1600
q = 1.1
kmin = 1.0e-5
kmax = 100000.00000000004
χ0 = 0.023029999999999995
RR = RR.tsv
ℓmax = ℓmax.bin
f21 = f21.bin
kmin = 1.0e-5
kmax = 100000.0
dlrec    = 4
dlrecRg1 = -4
Output size: 5741568 bytes = 0.005347251892089844 GiB
Output size: 51264 bytes = 4.774332046508789e-5 GiB
Reading 'out/F21EllCache'...   0.001113 seconds (271 allocations: 84.719 KiB)
ellmax: 1202
lmaxcache: 1202
fell[:,1,1] = Complex{Float64}[1.3482014726274674e-57 - 3.302141236118086e-73im, 1.357860004724329e-57 - 3.3257978169518355e-73im]
ell 1202, elapsed: 7.104873657226562e-5
ell 1201, elapsed: 0.0004189014434814453
ell 1200, elapsed: 0.00041794776916503906
ell 1199, elapsed: 0.0003998279571533203
ell 1198, elapsed: 0.00041103363037109375
ell 1002, elapsed: 0.00964808464050293
ell 1001, elapsed: 0.00042819976806640625
ell 1000, elapsed: 0.0004019737243652344
ell 999, elapsed: 0.00039005279541015625
ell 998, elapsed: 0.0004029273986816406
ell 902, elapsed: 0.005074024200439453
ell 901, elapsed: 0.00043010711669921875
ell 900, elapsed: 0.0003998279571533203
ell 899, elapsed: 0.0003948211669921875
ell 898, elapsed: 0.0004029273986816406
ell 802, elapsed: 0.005173921585083008
ell 801, elapsed: 0.0004429817199707031
ell 800, elapsed: 0.0004029273986816406
ell 799, elapsed: 0.0003781318664550781
ell 798, elapsed: 0.00040793418884277344
ell 702, elapsed: 0.004995822906494141
ell 701, elapsed: 0.0005960464477539062
ell 700, elapsed: 0.00039315223693847656
ell 699, elapsed: 0.0004029273986816406
ell 698, elapsed: 0.00039696693420410156
ell 602, elapsed: 0.005808115005493164
ell 601, elapsed: 0.00043082237243652344
ell 600, elapsed: 0.00041294097900390625
ell 599, elapsed: 0.0004038810729980469
ell 598, elapsed: 0.0005140304565429688
ell 502, elapsed: 0.0051250457763671875
ell 501, elapsed: 0.00043010711669921875
ell 500, elapsed: 0.0006201267242431641
ell 499, elapsed: 0.0004260540008544922
ell 498, elapsed: 0.000576019287109375
ell 402, elapsed: 0.005491971969604492
ell 401, elapsed: 0.0003800392150878906
ell 400, elapsed: 0.0003478527069091797
ell 399, elapsed: 0.0003399848937988281
ell 398, elapsed: 0.0003428459167480469
ell 302, elapsed: 0.004945993423461914
ell 301, elapsed: 0.00041294097900390625
ell 300, elapsed: 0.00039696693420410156
ell 299, elapsed: 0.0004451274871826172
ell 298, elapsed: 0.00034499168395996094
ell 202, elapsed: 0.00597381591796875
ell 201, elapsed: 0.0003712177276611328
ell 200, elapsed: 0.00042700767517089844
ell 199, elapsed: 0.00034809112548828125
ell 198, elapsed: 0.00043201446533203125
ell 152, elapsed: 0.002830982208251953
ell 151, elapsed: 0.0004410743713378906
ell 150, elapsed: 0.0003521442413330078
ell 149, elapsed: 0.00033402442932128906
ell 148, elapsed: 0.0004019737243652344
ell 127, elapsed: 0.001519918441772461
ell 126, elapsed: 0.00034499168395996094
ell 125, elapsed: 0.00034308433532714844
ell 124, elapsed: 0.0003650188446044922
ell 123, elapsed: 0.0003409385681152344
ell 114, elapsed: 0.0008208751678466797
ell 113, elapsed: 0.0003440380096435547
ell 112, elapsed: 0.0003399848937988281
ell 111, elapsed: 0.0003421306610107422
ell 110, elapsed: 0.00034618377685546875
ell 102, elapsed: 0.0008947849273681641
ell 101, elapsed: 0.00033283233642578125
ell 100, elapsed: 0.0003390312194824219
ell 99, elapsed: 0.0003390312194824219
ell 98, elapsed: 0.0003390312194824219
ell 97, elapsed: 0.00039386749267578125
ell 96, elapsed: 0.00048613548278808594
ell 95, elapsed: 0.0003800392150878906
ell 94, elapsed: 0.0004780292510986328
ell 93, elapsed: 0.0004029273986816406
ell 92, elapsed: 0.00047397613525390625
ell 91, elapsed: 0.0004940032958984375
ell 90, elapsed: 0.0005710124969482422
ell 89, elapsed: 0.0003750324249267578
ell 88, elapsed: 0.0004742145538330078
ell 87, elapsed: 0.0003809928894042969
ell 86, elapsed: 0.0004820823669433594
ell 85, elapsed: 0.00037980079650878906
ell 84, elapsed: 0.0004668235778808594
ell 83, elapsed: 0.0003781318664550781
ell 82, elapsed: 0.0004699230194091797
ell 81, elapsed: 0.00037384033203125
ell 80, elapsed: 0.0006439685821533203
ell 79, elapsed: 0.0004589557647705078
ell 78, elapsed: 0.0004830360412597656
ell 77, elapsed: 0.0003809928894042969
ell 76, elapsed: 0.0004711151123046875
ell 75, elapsed: 0.00037789344787597656
ell 74, elapsed: 0.0004699230194091797
ell 73, elapsed: 0.0003819465637207031
ell 72, elapsed: 0.0005350112915039062
ell 71, elapsed: 0.0004761219024658203
ell 70, elapsed: 0.0005540847778320312
ell 69, elapsed: 0.0004639625549316406
ell 68, elapsed: 0.0005860328674316406
ell 67, elapsed: 0.000492095947265625
ell 66, elapsed: 0.0005640983581542969
ell 65, elapsed: 0.0004589557647705078
ell 64, elapsed: 0.000576019287109375
ell 63, elapsed: 0.0004868507385253906
ell 62, elapsed: 0.0005528926849365234
ell 61, elapsed: 0.00048089027404785156
ell 60, elapsed: 0.0005719661712646484
ell 59, elapsed: 0.00047397613525390625
ell 58, elapsed: 0.0005819797515869141
ell 57, elapsed: 0.00046896934509277344
ell 56, elapsed: 0.0006070137023925781
ell 55, elapsed: 0.00047016143798828125
ell 54, elapsed: 0.0005679130554199219
ell 53, elapsed: 0.00046896934509277344
ell 52, elapsed: 0.0005970001220703125
ell 51, elapsed: 0.000492095947265625
ell 50, elapsed: 0.0005898475646972656
ell 49, elapsed: 0.0004718303680419922
ell 48, elapsed: 0.0006361007690429688
ell 47, elapsed: 0.0004680156707763672
ell 46, elapsed: 0.0005850791931152344
ell 45, elapsed: 0.0004730224609375
ell 44, elapsed: 0.0005788803100585938
ell 43, elapsed: 0.00049591064453125
ell 42, elapsed: 0.0005860328674316406
ell 41, elapsed: 0.0004889965057373047
ell 40, elapsed: 0.0005660057067871094
ell 39, elapsed: 0.00047898292541503906
ell 38, elapsed: 0.0006000995635986328
ell 37, elapsed: 0.0004868507385253906
ell 36, elapsed: 0.0005800724029541016
ell 35, elapsed: 0.00047588348388671875
ell 34, elapsed: 0.0005860328674316406
ell 33, elapsed: 0.0004858970642089844
ell 32, elapsed: 0.0005910396575927734
ell 31, elapsed: 0.0004730224609375
ell 30, elapsed: 0.0005919933319091797
ell 29, elapsed: 0.0004949569702148438
ell 28, elapsed: 0.0005991458892822266
ell 27, elapsed: 0.0004780292510986328
ell 26, elapsed: 0.0005738735198974609
ell 25, elapsed: 0.0007379055023193359
ell 24, elapsed: 0.0005979537963867188
ell 23, elapsed: 0.0004711151123046875
ell 22, elapsed: 0.0005698204040527344
ell 21, elapsed: 0.00047087669372558594
ell 20, elapsed: 0.0005640983581542969
ell 19, elapsed: 0.0004730224609375
ell 18, elapsed: 0.0005710124969482422
ell 17, elapsed: 0.0004911422729492188
ell 16, elapsed: 0.0005788803100585938
ell 15, elapsed: 0.00047516822814941406
ell 14, elapsed: 0.0005719661712646484
ell 13, elapsed: 0.0004680156707763672
ell 12, elapsed: 0.0006759166717529297
ell 11, elapsed: 0.0004608631134033203
ell 10, elapsed: 0.0005340576171875
ell 9, elapsed: 0.0004520416259765625
ell 8, elapsed: 0.0005421638488769531
ell 7, elapsed: 0.0004401206970214844
ell 6, elapsed: 0.0005309581756591797
ell 5, elapsed: 0.0004100799560546875
ell 4, elapsed: 0.0004730224609375
ell 3, elapsed: 0.00045990943908691406
ell 2, elapsed: 0.0006430149078369141
ell 1, elapsed: 0.00048804283142089844
ell 0, elapsed: 0.000576019287109375
  0.185207 seconds (13.01 k allocations: 675.188 KiB)
elapsed: 0.0005598068237304688
step:          0.058309 sec (0 allocations: 0 byte, 0.0% gc time)
swapping:      0.000561 sec (0 allocations: 0 byte, 0.0% gc time)
calc_Mellell!: 0.001324 sec (0 allocations: 0 byte, 0.0% gc time)
  t0 :  0.000548 sec (0 allocations: 0 byte, 0.0% gc time)
  tm2 : 0.01254 sec (0 allocations: 0 byte, 0.0% gc time)
  tm2s: 0.000335 sec (0 allocations: 0 byte, 0.0% gc time)
  tm4 : 0.031605 sec (0 allocations: 0 byte, 0.0% gc time)
  tp2 : 0.0 sec (0 allocations: 0 byte, 0.0% gc time)
  tp2s: 0.0 sec (0 allocations: 0 byte, 0.0% gc time)
  tp4 : 0.0 sec (0 allocations: 0 byte, 0.0% gc time)
calc_wtdll!:   0.045716 sec (1.344 k allocations: 147.0 KB, 0.0% gc time)
calc_wljj!:    0.004085 sec (6 allocations: 96 byte, 0.0% gc time)
mult_prefac!:  0.0 sec (0 allocations: 0 byte, 0.0% gc time)
convert:       0.0 sec (0 allocations: 0 byte, 0.0% gc time)
write:         0.006023 sec (0 allocations: 0 byte, 0.0% gc time)
test_rand_2f1: 0.0 sec (0 allocations: 0 byte, 0.0% gc time)
Closing outfile out/Ml21-cache.bin...   0.005251 seconds
  0.000342 seconds (52 allocations: 28.297 KiB)
make_phi():   0.002342 seconds (8.20 k allocations: 238.016 KiB)
  0.015215 seconds (12.10 k allocations: 322.000 KiB)
tskip:       2.0e-5 sec (0 allocations: 0 byte, 0.0% gc time)
tread:       0.002284 sec (20 allocations: 2.188 KB, 0.0% gc time)
tmultphi:    0.001178 sec (0 allocations: 0 byte, 0.0% gc time)
tbrfft:      0.004254 sec (896 allocations: 42.0 KB, 0.0% gc time)
tmultprefac: 0.002716 sec (0 allocations: 0 byte, 0.0% gc time)
toutfunc:    0.004677 sec (10.528 k allocations: 206.5 KB, 0.0% gc time)
Testing R=0.9 ... passed
Calculating fmax: 
  dlrec    = 4
  dlrecRg1 = -4
  q=1.1, R=0.8:	  0.482564 seconds (145.59 k allocations: 68.095 MiB, 2.05% gc time)

  0.483256 seconds (145.66 k allocations: 68.127 MiB, 2.04% gc time)
ℓ = 1202
Δℓ = 4
ΔℓRg1 = -4
N = 1600
q = 1.1
kmin = 1.0e-5
kmax = 100000.00000000004
χ0 = 0.023029999999999995
RR = RR.tsv
ℓmax = ℓmax.bin
f21 = f21.bin
kmin = 1.0e-5
kmax = 100000.0
dlrec    = 4
dlrecRg1 = -4
Output size: 5741568 bytes = 0.005347251892089844 GiB
Output size: 51264 bytes = 4.774332046508789e-5 GiB
Reading 'out/F21EllCache'...   0.001074 seconds (271 allocations: 84.719 KiB)
ellmax: 1202
lmaxcache: 1202
fell[:,1,1] = Complex{Float64}[7.519068145690986e-120 - 1.8416405474382574e-135im, 7.541664537386155e-120 - 1.847175067190611e-135im]
ell 1202, elapsed: 0.00011110305786132812
ell 1201, elapsed: 0.0007109642028808594
ell 1200, elapsed: 0.00047397613525390625
ell 1199, elapsed: 0.0004429817199707031
ell 1198, elapsed: 0.0006210803985595703
ell 1002, elapsed: 0.010084867477416992
ell 1001, elapsed: 0.0004649162292480469
ell 1000, elapsed: 0.00026917457580566406
ell 999, elapsed: 0.0003581047058105469
ell 998, elapsed: 0.0003600120544433594
ell 902, elapsed: 0.00551605224609375
ell 901, elapsed: 0.00045299530029296875
ell 900, elapsed: 0.0005099773406982422
ell 899, elapsed: 0.0003590583801269531
ell 898, elapsed: 0.00035691261291503906
ell 802, elapsed: 0.005585908889770508
ell 801, elapsed: 0.0003719329833984375
ell 800, elapsed: 0.00035309791564941406
ell 799, elapsed: 0.00035309791564941406
ell 798, elapsed: 0.00034999847412109375
ell 702, elapsed: 0.005491018295288086
ell 701, elapsed: 0.0003561973571777344
ell 700, elapsed: 0.0003528594970703125
ell 699, elapsed: 0.000492095947265625
ell 698, elapsed: 0.00041794776916503906
ell 602, elapsed: 0.005640983581542969
ell 601, elapsed: 0.00041294097900390625
ell 600, elapsed: 0.0004029273986816406
ell 599, elapsed: 0.00040411949157714844
ell 598, elapsed: 0.00040912628173828125
ell 502, elapsed: 0.005660057067871094
ell 501, elapsed: 0.0004029273986816406
ell 500, elapsed: 0.0005850791931152344
ell 499, elapsed: 0.0005350112915039062
ell 498, elapsed: 0.0006031990051269531
ell 402, elapsed: 0.005688190460205078
ell 401, elapsed: 0.00041794776916503906
ell 400, elapsed: 0.000408172607421875
ell 399, elapsed: 0.000392913818359375
ell 398, elapsed: 0.00039315223693847656
ell 302, elapsed: 0.005465030670166016
ell 301, elapsed: 0.0003819465637207031
ell 300, elapsed: 0.0003409385681152344
ell 299, elapsed: 0.00034689903259277344
ell 298, elapsed: 0.0003390312194824219
ell 202, elapsed: 0.005576133728027344
ell 201, elapsed: 0.00036215782165527344
ell 200, elapsed: 0.00035881996154785156
ell 199, elapsed: 0.0003399848937988281
ell 198, elapsed: 0.00034117698669433594
ell 152, elapsed: 0.0025479793548583984
ell 151, elapsed: 0.0004260540008544922
ell 150, elapsed: 0.00045299530029296875
ell 149, elapsed: 0.0004429817199707031
ell 148, elapsed: 0.0004398822784423828
ell 127, elapsed: 0.0016579627990722656
ell 126, elapsed: 0.0006639957427978516
ell 125, elapsed: 0.0005908012390136719
ell 124, elapsed: 0.0004649162292480469
ell 123, elapsed: 0.0005860328674316406
ell 114, elapsed: 0.0011379718780517578
ell 113, elapsed: 0.0005948543548583984
ell 112, elapsed: 0.00061798095703125
ell 111, elapsed: 0.0006551742553710938
ell 110, elapsed: 0.0004329681396484375
ell 102, elapsed: 0.0012629032135009766
ell 101, elapsed: 0.000640869140625
ell 100, elapsed: 0.0004169940948486328
ell 99, elapsed: 0.0004210472106933594
ell 98, elapsed: 0.0004279613494873047
ell 97, elapsed: 0.00048089027404785156
ell 96, elapsed: 0.0005960464477539062
ell 95, elapsed: 0.0006399154663085938
ell 94, elapsed: 0.0005819797515869141
ell 93, elapsed: 0.0004858970642089844
ell 92, elapsed: 0.0007669925689697266
ell 91, elapsed: 0.0004940032958984375
ell 90, elapsed: 0.0007710456848144531
ell 89, elapsed: 0.0004830360412597656
ell 88, elapsed: 0.0005838871002197266
ell 87, elapsed: 0.0004990100860595703
ell 86, elapsed: 0.0008268356323242188
ell 85, elapsed: 0.0004878044128417969
ell 84, elapsed: 0.0005810260772705078
ell 83, elapsed: 0.0004520416259765625
ell 82, elapsed: 0.0005660057067871094
ell 81, elapsed: 0.00048089027404785156
ell 80, elapsed: 0.0005750656127929688
ell 79, elapsed: 0.00046896934509277344
ell 78, elapsed: 0.0005788803100585938
ell 77, elapsed: 0.0004830360412597656
ell 76, elapsed: 0.0008230209350585938
ell 75, elapsed: 0.0004930496215820312
ell 74, elapsed: 0.0005788803100585938
ell 73, elapsed: 0.0004508495330810547
ell 72, elapsed: 0.0008161067962646484
ell 71, elapsed: 0.0004742145538330078
ell 70, elapsed: 0.0005841255187988281
ell 69, elapsed: 0.00048613548278808594
ell 68, elapsed: 0.0005710124969482422
ell 67, elapsed: 0.0004699230194091797
ell 66, elapsed: 0.0008771419525146484
ell 65, elapsed: 0.0007221698760986328
ell 64, elapsed: 0.0007989406585693359
[...]
ell 782, elapsed: 0.0015859603881835938
ell 781, elapsed: 0.0009930133819580078
ell 780, elapsed: 0.0007688999176025391
ell 779, elapsed: 0.0007638931274414062
ell 778, elapsed: 0.0007650852203369141
ell 772, elapsed: 0.001828908920288086
ell 771, elapsed: 0.0007658004760742188
ell 770, elapsed: 0.0007729530334472656
ell 769, elapsed: 0.0007700920104980469
ell 768, elapsed: 0.00078582763671875
ell 762, elapsed: 0.0015671253204345703
ell 761, elapsed: 0.0007779598236083984
ell 760, elapsed: 0.0007739067077636719
ell 759, elapsed: 0.0009028911590576172
ell 758, elapsed: 0.0007739067077636719
ell 752, elapsed: 0.0015349388122558594
ell 751, elapsed: 0.0007679462432861328
ell 750, elapsed: 0.0007829666137695312
ell 749, elapsed: 0.0007679462432861328
ell 748, elapsed: 0.0007650852203369141
ell 742, elapsed: 0.0015499591827392578
ell 741, elapsed: 0.0007688999176025391
ell 740, elapsed: 0.0007679462432861328
ell 739, elapsed: 0.0007669925689697266
ell 738, elapsed: 0.0007660388946533203
ell 732, elapsed: 0.0017039775848388672
ell 731, elapsed: 0.0007760524749755859
ell 730, elapsed: 0.0007698535919189453
ell 729, elapsed: 0.0007700920104980469
ell 728, elapsed: 0.0007870197296142578
ell 722, elapsed: 0.0015401840209960938
ell 721, elapsed: 0.0007710456848144531
ell 720, elapsed: 0.000762939453125
ell 719, elapsed: 0.0009169578552246094
ell 718, elapsed: 0.0007669925689697266
ell 712, elapsed: 0.0015521049499511719
ell 711, elapsed: 0.0007917881011962891
ell 710, elapsed: 0.0007719993591308594
ell 709, elapsed: 0.0007650852203369141
ell 708, elapsed: 0.0007729530334472656
ell 702, elapsed: 0.0018391609191894531
ell 701, elapsed: 0.0007839202880859375
ell 700, elapsed: 0.0007638931274414062
ell 699, elapsed: 0.0007660388946533203
ell 698, elapsed: 0.0007638931274414062
ell 692, elapsed: 0.001580953598022461
ell 691, elapsed: 0.0007719993591308594
ell 690, elapsed: 0.0007779598236083984
ell 689, elapsed: 0.0007719993591308594
ell 688, elapsed: 0.0011451244354248047
ell 682, elapsed: 0.0015358924865722656
ell 681, elapsed: 0.0007669925689697266
ell 680, elapsed: 0.0007979869842529297
ell 679, elapsed: 0.0007598400115966797
ell 678, elapsed: 0.0007619857788085938
ell 672, elapsed: 0.0015349388122558594
ell 671, elapsed: 0.0010828971862792969
ell 670, elapsed: 0.0007638931274414062
ell 669, elapsed: 0.0007619857788085938
ell 668, elapsed: 0.0007619857788085938
ell 662, elapsed: 0.0015549659729003906
ell 661, elapsed: 0.0007660388946533203
ell 660, elapsed: 0.0007829666137695312
ell 659, elapsed: 0.0007550716400146484
ell 658, elapsed: 0.0010869503021240234
ell 652, elapsed: 0.001405954360961914
ell 651, elapsed: 0.0007200241088867188
ell 650, elapsed: 0.0007519721984863281
ell 649, elapsed: 0.0007650852203369141
ell 648, elapsed: 0.0007219314575195312
ell 642, elapsed: 0.0014328956604003906
ell 641, elapsed: 0.0007147789001464844
ell 640, elapsed: 0.0010449886322021484
ell 639, elapsed: 0.0007328987121582031
ell 638, elapsed: 0.0007328987121582031
ell 632, elapsed: 0.0014231204986572266
ell 631, elapsed: 0.0008080005645751953
ell 630, elapsed: 0.0007321834564208984
ell 629, elapsed: 0.0007381439208984375
ell 628, elapsed: 0.0007269382476806641
ell 622, elapsed: 0.0017540454864501953
ell 621, elapsed: 0.0007390975952148438
ell 620, elapsed: 0.0007331371307373047
ell 619, elapsed: 0.0007290840148925781
ell 618, elapsed: 0.0007340908050537109
ell 612, elapsed: 0.0015659332275390625
ell 611, elapsed: 0.0007359981536865234
ell 610, elapsed: 0.0007321834564208984
ell 609, elapsed: 0.0007340908050537109
ell 608, elapsed: 0.0011048316955566406
ell 602, elapsed: 0.001466989517211914
ell 601, elapsed: 0.0007178783416748047
ell 600, elapsed: 0.0007619857788085938
ell 599, elapsed: 0.0007350444793701172
ell 598, elapsed: 0.0007278919219970703
ell 592, elapsed: 0.001461029052734375
ell 591, elapsed: 0.0009179115295410156
ell 590, elapsed: 0.0007619857788085938
ell 589, elapsed: 0.0007309913635253906
ell 588, elapsed: 0.00072479248046875
ell 582, elapsed: 0.0015978813171386719
ell 581, elapsed: 0.0007441043853759766
ell 580, elapsed: 0.0007472038269042969
ell 579, elapsed: 0.000720977783203125
ell 578, elapsed: 0.000743865966796875
ell 572, elapsed: 0.0017359256744384766
ell 571, elapsed: 0.0007321834564208984
ell 570, elapsed: 0.0007081031799316406
ell 569, elapsed: 0.0007498264312744141
ell 568, elapsed: 0.0008909702301025391
ell 562, elapsed: 0.0014688968658447266
ell 561, elapsed: 0.0007379055023193359
ell 560, elapsed: 0.0007419586181640625
ell 559, elapsed: 0.0007719993591308594
ell 558, elapsed: 0.0007500648498535156
ell 552, elapsed: 0.001474142074584961
ell 551, elapsed: 0.0007300376892089844
ell 550, elapsed: 0.0008521080017089844
ell 549, elapsed: 0.0007369518280029297
ell 548, elapsed: 0.0007288455963134766
ell 542, elapsed: 0.0014688968658447266
ell 541, elapsed: 0.0007441043853759766
ell 540, elapsed: 0.0007431507110595703
ell 539, elapsed: 0.0007410049438476562
ell 538, elapsed: 0.0007338523864746094
ell 532, elapsed: 0.0016131401062011719
ell 531, elapsed: 0.0007359981536865234
ell 530, elapsed: 0.0007419586181640625
ell 529, elapsed: 0.0007441043853759766
ell 528, elapsed: 0.0007460117340087891
ell 522, elapsed: 0.001474142074584961
ell 521, elapsed: 0.0007460117340087891
ell 520, elapsed: 0.0007350444793701172
ell 519, elapsed: 0.0007238388061523438
ell 518, elapsed: 0.0008671283721923828
ell 512, elapsed: 0.0014810562133789062
ell 511, elapsed: 0.0007278919219970703
ell 510, elapsed: 0.0007290840148925781
ell 509, elapsed: 0.000743865966796875
ell 508, elapsed: 0.0007250308990478516
ell 502, elapsed: 0.0014009475708007812
ell 501, elapsed: 0.0007829666137695312
ell 500, elapsed: 0.000762939453125
ell 499, elapsed: 0.0007641315460205078
ell 498, elapsed: 0.000759124755859375
ell 492, elapsed: 0.0016520023345947266
ell 491, elapsed: 0.0007729530334472656
ell 490, elapsed: 0.0007650852203369141
ell 489, elapsed: 0.0007469654083251953
ell 488, elapsed: 0.0007848739624023438
ell 482, elapsed: 0.0086212158203125
ell 481, elapsed: 0.0007469654083251953
ell 480, elapsed: 0.0007598400115966797
ell 479, elapsed: 0.0007519721984863281
ell 478, elapsed: 0.0007550716400146484
ell 472, elapsed: 0.0015609264373779297
ell 471, elapsed: 0.0007569789886474609
ell 470, elapsed: 0.0007460117340087891
ell 469, elapsed: 0.0007481575012207031
ell 468, elapsed: 0.0007669925689697266
ell 462, elapsed: 0.0015299320220947266
ell 461, elapsed: 0.0007538795471191406
ell 460, elapsed: 0.0007510185241699219
ell 459, elapsed: 0.0007610321044921875
ell 458, elapsed: 0.0007460117340087891
ell 452, elapsed: 0.0015120506286621094
ell 451, elapsed: 0.0007450580596923828
ell 450, elapsed: 0.0010340213775634766
ell 449, elapsed: 0.0007519721984863281
ell 448, elapsed: 0.0007529258728027344
ell 442, elapsed: 0.0017838478088378906
ell 441, elapsed: 0.0007610321044921875
ell 440, elapsed: 0.0007469654083251953
ell 439, elapsed: 0.0007529258728027344
ell 438, elapsed: 0.0007500648498535156
ell 432, elapsed: 0.0020248889923095703
ell 431, elapsed: 0.0007541179656982422
ell 430, elapsed: 0.0007460117340087891
ell 429, elapsed: 0.0010449886322021484
ell 428, elapsed: 0.0007488727569580078
ell 422, elapsed: 0.0015110969543457031
ell 421, elapsed: 0.0007519721984863281
ell 420, elapsed: 0.00102996826171875
ell 419, elapsed: 0.0007488727569580078
ell 418, elapsed: 0.0007560253143310547
ell 412, elapsed: 0.0019369125366210938
ell 411, elapsed: 0.0007119178771972656
ell 410, elapsed: 0.0007469654083251953
ell 409, elapsed: 0.0007469654083251953
ell 408, elapsed: 0.0007481575012207031
ell 402, elapsed: 0.002050161361694336
ell 401, elapsed: 0.0007550716400146484
ell 400, elapsed: 0.0007500648498535156
ell 399, elapsed: 0.001013040542602539
ell 398, elapsed: 0.0007569789886474609
ell 392, elapsed: 0.001519918441772461
ell 391, elapsed: 0.0007541179656982422
ell 390, elapsed: 0.0009210109710693359
ell 389, elapsed: 0.0007548332214355469
ell 388, elapsed: 0.0007531642913818359
ell 382, elapsed: 0.0015079975128173828
ell 381, elapsed: 0.0007660388946533203
ell 380, elapsed: 0.0007472038269042969
ell 379, elapsed: 0.0007550716400146484
ell 378, elapsed: 0.0007429122924804688
ell 372, elapsed: 0.001705169677734375
ell 371, elapsed: 0.0007138252258300781
ell 370, elapsed: 0.0007519721984863281
ell 369, elapsed: 0.0007469654083251953
ell 368, elapsed: 0.0007679462432861328
ell 362, elapsed: 0.001756906509399414
ell 361, elapsed: 0.0007150173187255859
ell 360, elapsed: 0.0007531642913818359
ell 359, elapsed: 0.0007660388946533203
ell 358, elapsed: 0.0007560253143310547
ell 352, elapsed: 0.0017619132995605469
ell 351, elapsed: 0.0007779598236083984
ell 350, elapsed: 0.0007548332214355469
ell 349, elapsed: 0.0007538795471191406
ell 348, elapsed: 0.0007529258728027344
ell 342, elapsed: 0.0057430267333984375
ell 341, elapsed: 0.0007879734039306641
ell 340, elapsed: 0.0007500648498535156
ell 339, elapsed: 0.0007369518280029297
ell 338, elapsed: 0.0007481575012207031
ell 332, elapsed: 0.0015268325805664062
ell 331, elapsed: 0.0007658004760742188
ell 330, elapsed: 0.0007579326629638672
ell 329, elapsed: 0.0007488727569580078
ell 328, elapsed: 0.0007729530334472656
ell 322, elapsed: 0.0014929771423339844
ell 321, elapsed: 0.0007619857788085938
ell 320, elapsed: 0.0007359981536865234
ell 319, elapsed: 0.0007748603820800781
ell 318, elapsed: 0.000759124755859375
ell 312, elapsed: 0.0017311573028564453
ell 311, elapsed: 0.0007510185241699219
ell 310, elapsed: 0.0007548332214355469
ell 309, elapsed: 0.0007581710815429688
ell 308, elapsed: 0.0007681846618652344
ell 302, elapsed: 0.0015270709991455078
ell 301, elapsed: 0.0007631778717041016
ell 300, elapsed: 0.000759124755859375
ell 299, elapsed: 0.0007469654083251953
ell 298, elapsed: 0.0007669925689697266
ell 292, elapsed: 0.0015320777893066406
ell 291, elapsed: 0.0007882118225097656
ell 290, elapsed: 0.0007801055908203125
ell 289, elapsed: 0.0007660388946533203
ell 288, elapsed: 0.0007581710815429688
ell 282, elapsed: 0.0015048980712890625
ell 281, elapsed: 0.0007588863372802734
ell 280, elapsed: 0.0007500648498535156
ell 279, elapsed: 0.0007710456848144531
ell 278, elapsed: 0.0007469654083251953
ell 272, elapsed: 0.0015020370483398438
ell 271, elapsed: 0.0007510185241699219
ell 270, elapsed: 0.0007770061492919922
ell 269, elapsed: 0.0007429122924804688
ell 268, elapsed: 0.0007441043853759766
ell 262, elapsed: 0.0014948844909667969
ell 261, elapsed: 0.0007550716400146484
ell 260, elapsed: 0.0007431507110595703
ell 259, elapsed: 0.0007460117340087891
ell 258, elapsed: 0.0007481575012207031
ell 252, elapsed: 0.0016219615936279297
ell 251, elapsed: 0.0007450580596923828
ell 250, elapsed: 0.0007398128509521484
ell 249, elapsed: 0.0007460117340087891
ell 248, elapsed: 0.000762939453125
ell 242, elapsed: 0.001711130142211914
ell 241, elapsed: 0.0007510185241699219
ell 240, elapsed: 0.0007309913635253906
ell 239, elapsed: 0.0007719993591308594
ell 238, elapsed: 0.0007610321044921875
ell 232, elapsed: 0.0015208721160888672
ell 231, elapsed: 0.0007729530334472656
ell 230, elapsed: 0.0007739067077636719
ell 229, elapsed: 0.0007250308990478516
ell 228, elapsed: 0.0007529258728027344
ell 222, elapsed: 0.0015020370483398438
ell 221, elapsed: 0.0007607936859130859
ell 220, elapsed: 0.000743865966796875
ell 219, elapsed: 0.0007309913635253906
ell 218, elapsed: 0.0007309913635253906
ell 212, elapsed: 0.0014739036560058594
ell 211, elapsed: 0.0007519721984863281
ell 210, elapsed: 0.0007510185241699219
ell 209, elapsed: 0.0007369518280029297
ell 208, elapsed: 0.0007390975952148438
ell 202, elapsed: 0.0014209747314453125
ell 201, elapsed: 0.0007479190826416016
ell 200, elapsed: 0.0007560253143310547
ell 199, elapsed: 0.0007531642913818359
ell 198, elapsed: 0.0008230209350585938
ell 192, elapsed: 0.001455068588256836
ell 191, elapsed: 0.0007538795471191406
ell 190, elapsed: 0.0007460117340087891
ell 189, elapsed: 0.0007431507110595703
ell 188, elapsed: 0.0007450580596923828
ell 182, elapsed: 0.0014278888702392578
ell 181, elapsed: 0.0007219314575195312
ell 180, elapsed: 0.0007510185241699219
ell 179, elapsed: 0.0007350444793701172
ell 178, elapsed: 0.0007560253143310547
ell 172, elapsed: 0.001455068588256836
ell 171, elapsed: 0.0007159709930419922
ell 170, elapsed: 0.0007431507110595703
ell 169, elapsed: 0.0007450580596923828
ell 168, elapsed: 0.0007619857788085938
ell 162, elapsed: 0.0015361309051513672
ell 161, elapsed: 0.0007431507110595703
ell 160, elapsed: 0.0007460117340087891
ell 159, elapsed: 0.0007328987121582031
ell 158, elapsed: 0.0007340908050537109
ell 152, elapsed: 0.0014789104461669922
ell 151, elapsed: 0.0007219314575195312
ell 150, elapsed: 0.0007550716400146484
ell 149, elapsed: 0.0007531642913818359
ell 148, elapsed: 0.0007600784301757812
ell 142, elapsed: 0.0014188289642333984
ell 141, elapsed: 0.0007660388946533203
ell 140, elapsed: 0.0007569789886474609
ell 139, elapsed: 0.0008380413055419922
ell 138, elapsed: 0.0007560253143310547
ell 132, elapsed: 0.001644134521484375
ell 131, elapsed: 0.0007498264312744141
ell 130, elapsed: 0.0007410049438476562
ell 129, elapsed: 0.0007460117340087891
ell 128, elapsed: 0.0007488727569580078
ell 122, elapsed: 0.0017328262329101562
ell 121, elapsed: 0.0007441043853759766
ell 120, elapsed: 0.0007469654083251953
ell 119, elapsed: 0.0007469654083251953
ell 118, elapsed: 0.0007450580596923828
ell 112, elapsed: 0.00150299072265625
ell 111, elapsed: 0.0007441043853759766
ell 110, elapsed: 0.0007469654083251953
ell 109, elapsed: 0.000743865966796875
ell 108, elapsed: 0.0007658004760742188
ell 102, elapsed: 0.0014829635620117188
ell 101, elapsed: 0.003454923629760742
ell 100, elapsed: 0.0037240982055664062
ell 99, elapsed: 0.004094839096069336
ell 98, elapsed: 0.0038101673126220703
ell 92, elapsed: 0.007120847702026367
ell 91, elapsed: 0.003386974334716797
ell 90, elapsed: 0.004034996032714844
ell 89, elapsed: 0.00424504280090332
ell 88, elapsed: 0.004124164581298828
ell 82, elapsed: 0.006927967071533203
ell 81, elapsed: 0.0038001537322998047
ell 80, elapsed: 0.003699064254760742
ell 79, elapsed: 0.0038099288940429688
ell 78, elapsed: 0.004096031188964844
ell 72, elapsed: 0.006539821624755859
ell 71, elapsed: 0.0034868717193603516
ell 70, elapsed: 0.0038568973541259766
ell 69, elapsed: 0.004077911376953125
ell 68, elapsed: 0.003932952880859375
ell 62, elapsed: 0.006973981857299805
ell 61, elapsed: 0.0039060115814208984
ell 60, elapsed: 0.0069959163665771484
ell 59, elapsed: 0.0034830570220947266
ell 58, elapsed: 0.003771066665649414
ell 52, elapsed: 0.0069849491119384766
ell 51, elapsed: 0.0034720897674560547
ell 50, elapsed: 0.003720998764038086
ell 49, elapsed: 0.004013776779174805
ell 48, elapsed: 0.003074169158935547
ell 42, elapsed: 0.006507158279418945
ell 41, elapsed: 0.0029799938201904297
ell 40, elapsed: 0.0030701160430908203
ell 39, elapsed: 0.0033330917358398438
ell 38, elapsed: 0.0034308433532714844
ell 32, elapsed: 0.006034135818481445
ell 31, elapsed: 0.0034999847412109375
ell 30, elapsed: 0.003475189208984375
ell 29, elapsed: 0.0032961368560791016
ell 28, elapsed: 0.0036160945892333984
ell 22, elapsed: 0.006099224090576172
ell 21, elapsed: 0.0036139488220214844
ell 20, elapsed: 0.0036668777465820312
ell 19, elapsed: 0.003554821014404297
ell 18, elapsed: 0.00333404541015625
ell 12, elapsed: 0.006260871887207031
ell 11, elapsed: 0.0029211044311523438
ell 10, elapsed: 0.0032470226287841797
ell 9, elapsed: 0.0031991004943847656
ell 8, elapsed: 0.003409147262573242
  0.785928 seconds (74.13 k allocations: 12.051 MiB)
elapsed: 0.0039021968841552734
step:          0.067095 sec (0 allocations: 0 byte, 0.0% gc time)
swapping:      0.000787 sec (0 allocations: 0 byte, 0.0% gc time)
calc_Mellell!: 0.03156 sec (0 allocations: 0 byte, 0.0% gc time)
  t0 :  0.010973 sec (0 allocations: 0 byte, 0.0% gc time)
  tm2 : 0.070173 sec (0 allocations: 0 byte, 0.0% gc time)
  tm2s: 0.009844 sec (0 allocations: 0 byte, 0.0% gc time)
  tm4 : 0.187735 sec (0 allocations: 0 byte, 0.0% gc time)
  tp2 : 0.0 sec (0 allocations: 0 byte, 0.0% gc time)
  tp2s: 0.0 sec (0 allocations: 0 byte, 0.0% gc time)
  tp4 : 0.0 sec (0 allocations: 0 byte, 0.0% gc time)
calc_wtdll!:   0.525974 sec (49.2 k allocations: 11.133 MB, 0.0% gc time)
calc_wljj!:    0.043568 sec (69 allocations: 1.078 KB, 0.0% gc time)
mult_prefac!:  0.0 sec (0 allocations: 0 byte, 0.0% gc time)
convert:       0.0 sec (0 allocations: 0 byte, 0.0% gc time)
write:         0.042351 sec (0 allocations: 0 byte, 0.0% gc time)
test_rand_2f1: 0.0 sec (0 allocations: 0 byte, 0.0% gc time)
Closing outfile out/MlCache/MlCache.bin...   0.000010 seconds
xi, l=0, nu=0:   0.366649 seconds (556.07 k allocations: 27.070 MiB)
xi, l=0, nu=-2:  0.002312 seconds (144 allocations: 149.563 KiB)
Created 'out/xi.tsv'.
  q=1.1, R=0.6:	  1.099026 seconds (373.06 k allocations: 174.511 MiB, 2.43% gc time)
  q=1.1, R=0.7:	  1.312171 seconds (391.29 k allocations: 182.916 MiB, 1.45% gc time)
  q=1.1, R=0.8:	  1.208988 seconds (383.81 k allocations: 179.466 MiB, 1.61% gc time)
  q=1.1, R=0.9:	  1.225749 seconds (376.40 k allocations: 176.056 MiB, 1.55% gc time)
  q=1.1, R=0.998:	 20.736284 seconds (10.67 M allocations: 831.832 MiB, 0.34% gc time)
  q=1.1, R=1.0:	  0.044570 seconds (12.29 k allocations: 9.129 MiB, 5.37% gc time)

ℓ = 1000
Δℓ = 4
ΔℓRg1 = -4
N = 4096
q = 1.1
kmin = 1.0e-5
kmax = 1000.0
χ0 = 0.001
RR = RR.tsv
ℓmax = ℓmax.bin
f21 = f21.bin
kmin = 1.0e-5
kmax = 1000.0
dlrec    = 4
dlrecRg1 = -4
Output size: 1573632 bytes = 0.0014655590057373047 GiB
Output size: 786816 bytes = 0.0007327795028686523 GiB
Reading 'out/F21EllCache'...   0.001585 seconds (272 allocations: 533.594 KiB)
ellmax: 1002
lmaxcache: 1000
fell[:,1,1] = Complex{Float64}[1.7262928128202118e-224 - 4.2281979352226944e-240im, 1.7282693092099662e-224 - 4.233038955177176e-240im]
ell 1002, elapsed: 3.2901763916015625e-5
ell 1001, elapsed: 0.0012679100036621094
ell 1000, elapsed: 0.0013930797576904297
ell 999, elapsed: 0.005825042724609375
ell 998, elapsed: 0.005255937576293945
ell 44, elapsed: 0.7173371315002441
ell 43, elapsed: 0.0057239532470703125
ell 42, elapsed: 0.005163908004760742
ell 41, elapsed: 0.005609989166259766
ell 40, elapsed: 0.0060138702392578125
  0.760995 seconds (4.65 k allocations: 318.375 KiB)
elapsed: 0.006818056106567383
step:          0.713695 sec (0 allocations: 0 byte, 0.0% gc time)
swapping:      0.000533 sec (0 allocations: 0 byte, 0.0% gc time)
calc_Mellell!: 0.00152 sec (0 allocations: 0 byte, 0.0% gc time)
  t0 :  0.000854 sec (0 allocations: 0 byte, 0.0% gc time)
  tm2 : 0.009787 sec (0 allocations: 0 byte, 0.0% gc time)
  tm2s: 0.000711 sec (0 allocations: 0 byte, 0.0% gc time)
  tm4 : 0.027376 sec (0 allocations: 0 byte, 0.0% gc time)
  tp2 : 0.0 sec (0 allocations: 0 byte, 0.0% gc time)
  tp2s: 0.0 sec (0 allocations: 0 byte, 0.0% gc time)
  tp4 : 0.0 sec (0 allocations: 0 byte, 0.0% gc time)
calc_wtdll!:   0.038986 sec (480 allocations: 52.5 KB, 0.0% gc time)
calc_wljj!:    0.001482 sec (1 allocations: 16 byte, 0.0% gc time)
mult_prefac!:  0.0 sec (0 allocations: 0 byte, 0.0% gc time)
convert:       0.0 sec (0 allocations: 0 byte, 0.0% gc time)
write:         0.000985 sec (0 allocations: 0 byte, 0.0% gc time)
test_rand_2f1: 0.0 sec (0 allocations: 0 byte, 0.0% gc time)
Closing outfile out/MlCache/MlCache.bin...   0.001768 seconds
  0.469352 seconds (54 allocations: 67.203 KiB)
make_phi():   0.007449 seconds (80 allocations: 276.297 KiB)
  0.002896 seconds (108 allocations: 5.813 KiB)
tskip:       1.0e-6 sec (0 allocations: 0 byte, 0.0% gc time)
tread:       0.000654 sec (20 allocations: 1.328 KB, 0.0% gc time)
tmultphi:    0.000258 sec (0 allocations: 0 byte, 0.0% gc time)
tbrfft:      0.001257 sec (96 allocations: 4.5 KB, 0.0% gc time)
tmultprefac: 0.00057 sec (0 allocations: 0 byte, 0.0% gc time)
toutfunc:    0.000262 sec (0 allocations: 0 byte, 0.0% gc time)
Created 'out/wl42_jj00.tsv'.
Created 'out/wl42_jj02.tsv'.
   Testing TwoFAST tests passed 
