Julia Version 1.4.3-pre.0
Commit b5f13c3a1a (2020-05-25 19:42 UTC)
Platform Info:
  OS: Linux (x86_64-linux-gnu)
  CPU: Intel(R) Xeon(R) Silver 4114 CPU @ 2.20GHz
  WORD_SIZE: 64
  LIBM: libopenlibm
  LLVM: libLLVM-8.0.1 (ORCJIT, skylake)
Environment:
  JULIA_DEPOT_PATH = ::/usr/local/share/julia
  JULIA_NUM_THREADS = 2

  Resolving package versions...
  Installed OpenSpecFun_jll ────────────── v0.5.3+3
  Installed CompilerSupportLibraries_jll ─ v0.3.3+0
  Installed AbstractFFTs ───────────────── v0.5.0
  Installed LoadFlint ──────────────────── v0.1.3
  Installed SpecialFunctions ───────────── v0.10.3
  Installed FFTW ───────────────────────── v1.2.2
  Installed AbstractAlgebra ────────────── v0.9.2
  Installed FFTW_jll ───────────────────── v3.3.9+5
  Installed Reexport ───────────────────── v0.2.0
  Installed MKL_jll ────────────────────── v2020.1.216+0
  Installed IntelOpenMP_jll ────────────── v2018.0.3+0
  Installed BinaryProvider ─────────────── v0.5.10
  Installed Nemo ───────────────────────── v0.17.5
  Installed TwoFAST ────────────────────── v0.1.1
   Updating `~/.julia/environments/v1.4/Project.toml`
  [0dd23c3e] + TwoFAST v0.1.1
   Updating `~/.julia/environments/v1.4/Manifest.toml`
  [c3fe647b] + AbstractAlgebra v0.9.2
  [621f4979] + AbstractFFTs v0.5.0
  [b99e7846] + BinaryProvider v0.5.10
  [e66e0078] + CompilerSupportLibraries_jll v0.3.3+0
  [7a1cc6ca] + FFTW v1.2.2
  [f5851436] + FFTW_jll v3.3.9+5
  [1d5cc7b8] + IntelOpenMP_jll v2018.0.3+0
  [472f376f] + LoadFlint v0.1.3
  [856f044c] + MKL_jll v2020.1.216+0
  [2edaba10] + Nemo v0.17.5
  [efe28fd5] + OpenSpecFun_jll v0.5.3+3
  [189a3867] + Reexport v0.2.0
  [276daf66] + SpecialFunctions v0.10.3
  [0dd23c3e] + TwoFAST v0.1.1
  [2a0f44e3] + Base64 
  [ade2ca70] + Dates 
  [8bb1440f] + DelimitedFiles 
  [8ba89e20] + Distributed 
  [b77e0a4c] + InteractiveUtils 
  [76f85450] + LibGit2 
  [8f399da3] + Libdl 
  [37e2e46d] + LinearAlgebra 
  [56ddb016] + Logging 
  [d6f4376e] + Markdown 
  [a63ad114] + Mmap 
  [44cfe95a] + Pkg 
  [de0858da] + Printf 
  [3fa0cd96] + REPL 
  [9a3f8284] + Random 
  [ea8e919c] + SHA 
  [9e88b42a] + Serialization 
  [6462fe0b] + Sockets 
  [2f01184e] + SparseArrays 
  [8dfed614] + Test 
  [cf7118a7] + UUIDs 
  [4ec0a83e] + Unicode 
   Building FFTW ─────→ `~/.julia/packages/FFTW/kcXL6/deps/build.log`
   Building LoadFlint → `~/.julia/packages/LoadFlint/42zpR/deps/build.log`
   Building Nemo ─────→ `~/.julia/packages/Nemo/Pc5ui/deps/build.log`
    Testing TwoFAST
Status `/tmp/jl_sq0e05/Manifest.toml`
  [c3fe647b] AbstractAlgebra v0.9.2
  [621f4979] AbstractFFTs v0.5.0
  [b99e7846] BinaryProvider v0.5.10
  [e66e0078] CompilerSupportLibraries_jll v0.3.3+0
  [39dd38d3] Dierckx v0.4.2
  [7a1cc6ca] FFTW v1.2.2
  [f5851436] FFTW_jll v3.3.9+5
  [1d5cc7b8] IntelOpenMP_jll v2018.0.3+0
  [472f376f] LoadFlint v0.1.3
  [856f044c] MKL_jll v2020.1.216+0
  [2edaba10] Nemo v0.17.5
  [efe28fd5] OpenSpecFun_jll v0.5.3+3
  [189a3867] Reexport v0.2.0
  [276daf66] SpecialFunctions v0.10.3
  [0dd23c3e] TwoFAST v0.1.1
  [2a0f44e3] Base64 
  [ade2ca70] Dates 
  [8bb1440f] DelimitedFiles 
  [8ba89e20] Distributed 
  [b77e0a4c] InteractiveUtils 
  [76f85450] LibGit2 
  [8f399da3] Libdl 
  [37e2e46d] LinearAlgebra 
  [56ddb016] Logging 
  [d6f4376e] Markdown 
  [a63ad114] Mmap 
  [44cfe95a] Pkg 
  [de0858da] Printf 
  [3fa0cd96] REPL 
  [9a3f8284] Random 
  [ea8e919c] SHA 
  [9e88b42a] Serialization 
  [6462fe0b] Sockets 
  [2f01184e] SparseArrays 
  [8dfed614] Test 
  [cf7118a7] UUIDs 
  [4ec0a83e] Unicode 
Testing ξ(r), ℓ=0, ν=-1 ... passed
Testing ξ(r), ℓ=0, ν=0 ... passed
Testing ξ(r), ℓ=0, ν=1 ... passed
Testing ξ(r), ℓ=0, ν=2 ... passed
Testing ξ(r), ℓ=0, ν=3 ... passed
Testing ξ(r), ℓ=1, ν=0 ... passed
Testing ξ(r), ℓ=1, ν=1 ... passed
Testing ξ(r), ℓ=1, ν=2 ... passed
Testing ξ(r), ℓ=1, ν=3 ... passed
Testing ξ(r), ℓ=2, ν=-1 ... passed
Testing ξ(r), ℓ=2, ν=0 ... passed
Testing ξ(r), ℓ=2, ν=1 ... passed
Testing ξ(r), ℓ=2, ν=2 ... passed
Testing ξ(r), ℓ=2, ν=3 ... passed
Testing ξ(r), ℓ=3, ν=-1 ... passed
Testing ξ(r), ℓ=3, ν=0 ... passed
Testing ξ(r), ℓ=3, ν=1 ... passed
Testing ξ(r), ℓ=3, ν=2 ... passed
Testing ξ(r), ℓ=3, ν=3 ... passed
Testing ξ(r), ℓ=4, ν=-1 ... passed
Testing ξ(r), ℓ=4, ν=0 ... passed
Testing ξ(r), ℓ=4, ν=1 ... passed
Testing ξ(r), ℓ=4, ν=2 ... passed
Testing ξ(r), ℓ=4, ν=3 ... passed
Testing ξ(r) ... passed
Testing ξ′(r) ... passed
Testing ξ″(r) ... passed
Calculating fmax: 
  dlrec    = 4
  dlrecRg1 = -4
  q=1.1, R=1.1:	  4.913807 seconds (1.39 M allocations: 76.346 MiB, 1.62% gc time)

  4.953108 seconds (1.41 M allocations: 77.456 MiB, 1.61% gc time)
ℓ = 1202
Δℓ = 4
ΔℓRg1 = -4
N = 1600
q = 1.1
kmin = 1.0e-5
kmax = 100000.00000000004
χ0 = 0.023029999999999995
RR = RR.tsv
ℓmax = ℓmax.bin
f21 = f21.bin
kmin = 1.0e-5
kmax = 100000.0
dlrec    = 4
dlrecRg1 = -4
Output size: 5741568 bytes = 0.005347251892089844 GiB
Output size: 51264 bytes = 4.774332046508789e-5 GiB
Reading 'out/F21EllCache'...   0.615332 seconds (320.89 k allocations: 16.472 MiB)
ellmax: 1202
lmaxcache: 1202
fell[:,1,1] = Complex{Float64}[3.9583795592771634e-52 - 9.695233714158177e-68im, 3.990121772925759e-52 - 9.772979714843386e-68im]
ell 1202, elapsed: 0.0002529621124267578
ell 1201, elapsed: 2.2567250728607178
ell 1200, elapsed: 0.0006580352783203125
ell 1199, elapsed: 0.0005910396575927734
ell 1198, elapsed: 0.0005409717559814453
ell 1002, elapsed: 0.009396791458129883
ell 1001, elapsed: 0.0005998611450195312
ell 1000, elapsed: 0.0005421638488769531
ell 999, elapsed: 0.0005669593811035156
ell 998, elapsed: 0.0005519390106201172
ell 902, elapsed: 0.004994869232177734
ell 901, elapsed: 0.0005819797515869141
ell 900, elapsed: 0.0005321502685546875
ell 899, elapsed: 0.0007970333099365234
ell 898, elapsed: 0.0005230903625488281
ell 802, elapsed: 0.005074977874755859
ell 801, elapsed: 0.0005609989166259766
ell 800, elapsed: 0.0005381107330322266
ell 799, elapsed: 0.0007269382476806641
ell 798, elapsed: 0.0005369186401367188
ell 702, elapsed: 0.005063056945800781
ell 701, elapsed: 0.0005688667297363281
ell 700, elapsed: 0.0005419254302978516
ell 699, elapsed: 0.0007071495056152344
ell 698, elapsed: 0.0005269050598144531
ell 602, elapsed: 0.00520014762878418
ell 601, elapsed: 0.000576019287109375
ell 600, elapsed: 0.0005660057067871094
ell 599, elapsed: 0.0006780624389648438
ell 598, elapsed: 0.0005509853363037109
ell 502, elapsed: 0.005028963088989258
ell 501, elapsed: 0.0005848407745361328
ell 500, elapsed: 0.0005738735198974609
ell 499, elapsed: 0.0007271766662597656
ell 498, elapsed: 0.0006308555603027344
ell 402, elapsed: 0.0052490234375
ell 401, elapsed: 0.00074005126953125
ell 400, elapsed: 0.0006768703460693359
ell 399, elapsed: 0.0006611347198486328
ell 398, elapsed: 0.0006871223449707031
ell 302, elapsed: 0.005110979080200195
ell 301, elapsed: 0.0007348060607910156
ell 300, elapsed: 0.0007109642028808594
ell 299, elapsed: 0.0006940364837646484
ell 298, elapsed: 0.0006930828094482422
ell 202, elapsed: 0.00515294075012207
ell 201, elapsed: 0.0007178783416748047
ell 200, elapsed: 0.0006949901580810547
ell 199, elapsed: 0.0007178783416748047
ell 198, elapsed: 0.000682830810546875
ell 152, elapsed: 0.00898289680480957
ell 151, elapsed: 0.0008740425109863281
ell 150, elapsed: 0.0007450580596923828
ell 149, elapsed: 0.000743865966796875
ell 148, elapsed: 0.0007328987121582031
ell 127, elapsed: 0.0018010139465332031
ell 126, elapsed: 0.0006780624389648438
ell 125, elapsed: 0.0006921291351318359
ell 124, elapsed: 0.0006439685821533203
ell 123, elapsed: 0.0007190704345703125
ell 114, elapsed: 0.0010900497436523438
ell 113, elapsed: 0.000576019287109375
ell 112, elapsed: 0.0005490779876708984
ell 111, elapsed: 0.0005598068237304688
ell 110, elapsed: 0.0005538463592529297
ell 102, elapsed: 0.0009870529174804688
ell 101, elapsed: 0.0005400180816650391
ell 100, elapsed: 0.0005838871002197266
ell 99, elapsed: 0.0005419254302978516
ell 98, elapsed: 0.0008149147033691406
ell 97, elapsed: 0.0007431507110595703
ell 96, elapsed: 0.0007829666137695312
ell 95, elapsed: 0.0007569789886474609
ell 94, elapsed: 0.0008039474487304688
ell 93, elapsed: 0.0007119178771972656
ell 92, elapsed: 0.0007829666137695312
ell 91, elapsed: 0.0007140636444091797
ell 90, elapsed: 0.0007910728454589844
ell 89, elapsed: 0.0006899833679199219
ell 88, elapsed: 0.0008280277252197266
ell 87, elapsed: 0.0007150173187255859
ell 86, elapsed: 0.0007748603820800781
ell 85, elapsed: 0.0007588863372802734
ell 84, elapsed: 0.0007870197296142578
ell 83, elapsed: 0.0007081031799316406
ell 82, elapsed: 0.0007860660552978516
ell 81, elapsed: 0.0007100105285644531
ell 80, elapsed: 0.0007801055908203125
ell 79, elapsed: 0.0007300376892089844
ell 78, elapsed: 0.0007891654968261719
ell 77, elapsed: 0.0006818771362304688
ell 76, elapsed: 0.0008018016815185547
ell 75, elapsed: 0.0007450580596923828
ell 74, elapsed: 0.0007879734039306641
ell 73, elapsed: 0.0006999969482421875
ell 72, elapsed: 0.0008039474487304688
ell 71, elapsed: 0.0007181167602539062
ell 70, elapsed: 0.0008029937744140625
ell 69, elapsed: 0.0007140636444091797
ell 68, elapsed: 0.0006477832794189453
ell 67, elapsed: 0.0005848407745361328
ell 66, elapsed: 0.0006468296051025391
ell 65, elapsed: 0.0005719661712646484
ell 64, elapsed: 0.0006508827209472656
ell 63, elapsed: 0.0007510185241699219
ell 62, elapsed: 0.0006630420684814453
ell 61, elapsed: 0.0005769729614257812
ell 60, elapsed: 0.0006461143493652344
ell 59, elapsed: 0.0005769729614257812
ell 58, elapsed: 0.0006308555603027344
ell 57, elapsed: 0.0005140304565429688
ell 56, elapsed: 0.000576019287109375
ell 55, elapsed: 0.0005280971527099609
ell 54, elapsed: 0.0006399154663085938
ell 53, elapsed: 0.0005218982696533203
ell 52, elapsed: 0.0006089210510253906
ell 51, elapsed: 0.0004951953887939453
ell 50, elapsed: 0.0005538463592529297
ell 49, elapsed: 0.0005009174346923828
ell 48, elapsed: 0.0005729198455810547
ell 47, elapsed: 0.0006740093231201172
ell 46, elapsed: 0.000598907470703125
ell 45, elapsed: 0.0006968975067138672
ell 44, elapsed: 0.0007059574127197266
ell 43, elapsed: 0.0006229877471923828
ell 42, elapsed: 0.0006899833679199219
ell 41, elapsed: 0.0006420612335205078
ell 40, elapsed: 0.0007078647613525391
ell 39, elapsed: 0.0006351470947265625
ell 38, elapsed: 0.0006620883941650391
ell 37, elapsed: 0.0005791187286376953
ell 36, elapsed: 0.0006570816040039062
ell 35, elapsed: 0.0005311965942382812
ell 34, elapsed: 0.0005578994750976562
ell 33, elapsed: 0.0005021095275878906
ell 32, elapsed: 0.0007271766662597656
ell 31, elapsed: 0.0005099773406982422
ell 30, elapsed: 0.0005869865417480469
ell 29, elapsed: 0.0005030632019042969
ell 28, elapsed: 0.0007300376892089844
ell 27, elapsed: 0.0006308555603027344
ell 26, elapsed: 0.0005669593811035156
ell 25, elapsed: 0.000514984130859375
ell 24, elapsed: 0.0005831718444824219
ell 23, elapsed: 0.0005328655242919922
ell 22, elapsed: 0.0005731582641601562
ell 21, elapsed: 0.0004949569702148438
ell 20, elapsed: 0.0005559921264648438
ell 19, elapsed: 0.0005028247833251953
ell 18, elapsed: 0.0005738735198974609
ell 17, elapsed: 0.00055694580078125
ell 16, elapsed: 0.0006341934204101562
ell 15, elapsed: 0.0004990100860595703
ell 14, elapsed: 0.0005669593811035156
ell 13, elapsed: 0.0005049705505371094
ell 12, elapsed: 0.0005631446838378906
ell 11, elapsed: 0.00049591064453125
ell 10, elapsed: 0.0006270408630371094
ell 9, elapsed: 0.0005581378936767578
ell 8, elapsed: 0.0005640983581542969
ell 7, elapsed: 0.0005090236663818359
ell 6, elapsed: 0.0005688667297363281
ell 5, elapsed: 0.0005059242248535156
ell 4, elapsed: 0.0005679130554199219
ell 3, elapsed: 0.0005929470062255859
ell 2, elapsed: 0.0006270408630371094
ell 1, elapsed: 0.0005030632019042969
ell 0, elapsed: 0.0005621910095214844
  3.252865 seconds (2.03 M allocations: 98.016 MiB, 1.53% gc time)
elapsed: 0.0006399154663085938
step:          0.828485 sec (593.76 k allocations: 28.701 MB, 2.98% gc time)
swapping:      0.000515 sec (0 allocations: 0 byte, 0.0% gc time)
calc_Mellell!: 0.532093 sec (389.769 k allocations: 19.053 MB, 0.0% gc time)
  t0 :  0.0 sec (0 allocations: 0 byte, 0.0% gc time)
  tm2 : 0.0 sec (0 allocations: 0 byte, 0.0% gc time)
  tm2s: 0.0 sec (0 allocations: 0 byte, 0.0% gc time)
  tm4 : 0.0 sec (0 allocations: 0 byte, 0.0% gc time)
  tp2 : 0.0 sec (0 allocations: 0 byte, 0.0% gc time)
  tp2s: 0.0 sec (0 allocations: 0 byte, 0.0% gc time)
  tp4 : 0.0 sec (0 allocations: 0 byte, 0.0% gc time)
calc_wtdll!:   1.025018 sec (526.101 k allocations: 26.389 MB, 2.46% gc time)
calc_wljj!:    0.003118 sec (6 allocations: 96 byte, 0.0% gc time)
mult_prefac!:  0.0 sec (0 allocations: 0 byte, 0.0% gc time)
convert:       0.0 sec (0 allocations: 0 byte, 0.0% gc time)
write:         0.004255 sec (0 allocations: 0 byte, 0.0% gc time)
test_rand_2f1: 0.0 sec (0 allocations: 0 byte, 0.0% gc time)
Closing outfile out/Ml21-cache.bin...   0.000098 seconds
  1.055464 seconds (8.70 k allocations: 424.625 KiB)
make_phi():   0.013591 seconds (8.20 k allocations: 238.000 KiB)
  0.221137 seconds (121.72 k allocations: 5.903 MiB)
tskip:       2.0e-5 sec (0 allocations: 0 byte, 0.0% gc time)
tread:       0.002616 sec (19 allocations: 2.172 KB, 0.0% gc time)
tmultphi:    0.042553 sec (26.022 k allocations: 1.338 MB, 0.0% gc time)
tbrfft:      0.004234 sec (896 allocations: 42.0 KB, 0.0% gc time)
tmultprefac: 0.003702 sec (0 allocations: 0 byte, 0.0% gc time)
toutfunc:    0.167924 sec (94.127 k allocations: 4.452 MB, 0.0% gc time)
Testing R=1.1 ... passed
Calculating fmax: 
  dlrec    = 4
  dlrecRg1 = -4
  q=1.1, R=1.0:	  0.001758 seconds (4.00 k allocations: 300.375 KiB)

  0.001925 seconds (4.04 k allocations: 335.062 KiB)
ℓ = 1202
Δℓ = 4
ΔℓRg1 = -4
N = 1600
q = 1.1
kmin = 1.0e-5
kmax = 100000.00000000004
χ0 = 0.023029999999999995
RR = RR.tsv
ℓmax = ℓmax.bin
f21 = f21.bin
kmin = 1.0e-5
kmax = 100000.0
dlrec    = 4
dlrecRg1 = -4
Output size: 61465536 bytes = 0.05724424123764038 GiB
Output size: 51264 bytes = 4.774332046508789e-5 GiB
Reading 'out/F21EllCache'...   0.001027 seconds (267 allocations: 84.656 KiB)
ellmax: 1202
lmaxcache: 1202
fell[:,1,1] = Complex{Float64}[809.6031528389767 - 1.9829558194077161e-13im, 0.0 + 0.0im]
ell 1202, elapsed: 2.2172927856445312e-5
ell 1201, elapsed: 0.01662588119506836
ell 1200, elapsed: 0.0005049705505371094
ell 1199, elapsed: 0.0004088878631591797
ell 1198, elapsed: 0.0003600120544433594
ell 1197, elapsed: 0.0004019737243652344
ell 1196, elapsed: 0.0005061626434326172
ell 1195, elapsed: 0.0006639957427978516
ell 1194, elapsed: 0.0005891323089599609
ell 1193, elapsed: 0.0005469322204589844
ell 1192, elapsed: 0.0004088878631591797
ell 1191, elapsed: 0.0007171630859375
ell 1190, elapsed: 0.0004680156707763672
ell 1189, elapsed: 0.00045490264892578125
ell 1188, elapsed: 0.00038695335388183594
ell 1187, elapsed: 0.000453948974609375
ell 1186, elapsed: 0.0003871917724609375
ell 1185, elapsed: 0.0004489421844482422
ell 1184, elapsed: 0.00038504600524902344
ell 1183, elapsed: 0.0005590915679931641
ell 1182, elapsed: 0.00039315223693847656
ell 1181, elapsed: 0.0004639625549316406
ell 1180, elapsed: 0.0003879070281982422
ell 1179, elapsed: 0.0004601478576660156
ell 1178, elapsed: 0.00038814544677734375
ell 1177, elapsed: 0.0004730224609375
ell 1176, elapsed: 0.0003910064697265625
ell 1175, elapsed: 0.0005691051483154297
ell 1174, elapsed: 0.0003898143768310547
ell 1173, elapsed: 0.0004661083221435547
ell 1172, elapsed: 0.0003910064697265625
ell 1171, elapsed: 0.0004630088806152344
ell 1170, elapsed: 0.00039696693420410156
ell 1169, elapsed: 0.0004699230194091797
ell 1168, elapsed: 0.0003879070281982422
ell 1167, elapsed: 0.0004718303680419922
ell 1166, elapsed: 0.00039196014404296875
ell 1165, elapsed: 0.00045800209045410156
ell 1164, elapsed: 0.00039315223693847656
ell 1163, elapsed: 0.0004680156707763672
ell 1162, elapsed: 0.0003910064697265625
ell 1161, elapsed: 0.0004839897155761719
ell 1160, elapsed: 0.00039386749267578125
ell 1159, elapsed: 0.0004761219024658203
ell 1158, elapsed: 0.00042700767517089844
ell 1157, elapsed: 0.0004730224609375
ell 1156, elapsed: 0.000392913818359375
ell 1155, elapsed: 0.00045609474182128906
ell 1154, elapsed: 0.00038814544677734375
ell 1153, elapsed: 0.0004668235778808594
ell 1152, elapsed: 0.0003859996795654297
ell 1151, elapsed: 0.00045990943908691406
ell 1150, elapsed: 0.0006489753723144531
ell 1149, elapsed: 0.0006189346313476562
ell 1148, elapsed: 0.00039196014404296875
ell 1147, elapsed: 0.0005640983581542969
ell 1146, elapsed: 0.0005300045013427734
ell 1145, elapsed: 0.0005629062652587891
ell 1144, elapsed: 0.0005321502685546875
ell 1143, elapsed: 0.0004899501800537109
ell 1142, elapsed: 0.0004050731658935547
ell 1141, elapsed: 0.0006570816040039062
ell 1140, elapsed: 0.00055694580078125
ell 1139, elapsed: 0.0006101131439208984
ell 1138, elapsed: 0.0004630088806152344
ell 1137, elapsed: 0.0004601478576660156
ell 1136, elapsed: 0.0004088878631591797
ell 1135, elapsed: 0.0004680156707763672
ell 1134, elapsed: 0.0005550384521484375
ell 1133, elapsed: 0.0005578994750976562
ell 1132, elapsed: 0.0004038810729980469
ell 1131, elapsed: 0.0004630088806152344
ell 1130, elapsed: 0.0004038810729980469
ell 1129, elapsed: 0.0004658699035644531
ell 1128, elapsed: 0.0005829334259033203
ell 1127, elapsed: 0.0005321502685546875
ell 1126, elapsed: 0.00038504600524902344
ell 1125, elapsed: 0.0004730224609375
ell 1124, elapsed: 0.0003840923309326172
ell 1123, elapsed: 0.0004589557647705078
ell 1122, elapsed: 0.00039196014404296875
ell 1121, elapsed: 0.0006520748138427734
ell 1120, elapsed: 0.0004899501800537109
ell 1119, elapsed: 0.0004680156707763672
ell 1118, elapsed: 0.0003948211669921875
ell 1117, elapsed: 0.0004630088806152344
ell 1116, elapsed: 0.00039505958557128906
ell 1115, elapsed: 0.0004661083221435547
ell 1114, elapsed: 0.0003879070281982422
ell 1113, elapsed: 0.00045800209045410156
ell 1112, elapsed: 0.0004291534423828125
ell 1111, elapsed: 0.0004658699035644531
ell 1110, elapsed: 0.0003840923309326172
ell 1109, elapsed: 0.0004458427429199219
ell 1108, elapsed: 0.0003910064697265625
ell 1107, elapsed: 0.00045990943908691406
ell 1106, elapsed: 0.0005500316619873047
ell 1105, elapsed: 0.0006010532379150391
ell 1104, elapsed: 0.0004839897155761719
ell 1103, elapsed: 0.0005090236663818359
ell 1102, elapsed: 0.00041794776916503906
ell 1101, elapsed: 0.0005290508270263672
ell 1100, elapsed: 0.00040793418884277344
ell 1099, elapsed: 0.0005362033843994141
ell 1098, elapsed: 0.0003979206085205078
ell 1097, elapsed: 0.0004730224609375
ell 1096, elapsed: 0.00039696693420410156
ell 1095, elapsed: 0.0004649162292480469
ell 1094, elapsed: 0.0003898143768310547
ell 1093, elapsed: 0.0004658699035644531
ell 1092, elapsed: 0.000392913818359375
ell 1091, elapsed: 0.00044798851013183594
ell 1090, elapsed: 0.00055694580078125
ell 1089, elapsed: 0.0004761219024658203
ell 1088, elapsed: 0.00038909912109375
ell 1087, elapsed: 0.0006239414215087891
ell 1086, elapsed: 0.0004639625549316406
ell 1085, elapsed: 0.00045609474182128906
ell 1084, elapsed: 0.00038814544677734375
ell 1083, elapsed: 0.0006940364837646484
ell 1082, elapsed: 0.0004551410675048828
ell 1081, elapsed: 0.0004620552062988281
ell 1080, elapsed: 0.0003921985626220703
ell 1079, elapsed: 0.00045800209045410156
ell 1078, elapsed: 0.0003879070281982422
ell 1077, elapsed: 0.000453948974609375
ell 1076, elapsed: 0.0003910064697265625
ell 1075, elapsed: 0.00044989585876464844
ell 1074, elapsed: 0.0004839897155761719
ell 1073, elapsed: 0.0004608631134033203
ell 1072, elapsed: 0.00039005279541015625
ell 1071, elapsed: 0.0004489421844482422
ell 1070, elapsed: 0.00046706199645996094
ell 1069, elapsed: 0.0006420612335205078
ell 1068, elapsed: 0.0004611015319824219
ell 1067, elapsed: 0.0007529258728027344
ell 1066, elapsed: 0.00036907196044921875
ell 1065, elapsed: 0.0004730224609375
ell 1064, elapsed: 0.0003960132598876953
ell 1063, elapsed: 0.0004730224609375
ell 1062, elapsed: 0.0004000663757324219
ell 1061, elapsed: 0.00047397613525390625
ell 1060, elapsed: 0.00040411949157714844
ell 1059, elapsed: 0.0006670951843261719
ell 1058, elapsed: 0.0005829334259033203
ell 1057, elapsed: 0.0005631446838378906
ell 1056, elapsed: 0.0006511211395263672
ell 1055, elapsed: 0.0005259513854980469
ell 1054, elapsed: 0.0004038810729980469
ell 1053, elapsed: 0.00047087669372558594
ell 1052, elapsed: 0.0004119873046875
ell 1051, elapsed: 0.00047397613525390625
ell 1050, elapsed: 0.0004029273986816406
ell 1049, elapsed: 0.0004699230194091797
ell 1048, elapsed: 0.0004119873046875
ell 1047, elapsed: 0.00048089027404785156
ell 1046, elapsed: 0.00040793418884277344
ell 1045, elapsed: 0.00045800209045410156
ell 1044, elapsed: 0.000453948974609375
ell 1043, elapsed: 0.0004730224609375
ell 1042, elapsed: 0.0005631446838378906
ell 1041, elapsed: 0.0005309581756591797
ell 1040, elapsed: 0.00038909912109375
ell 1039, elapsed: 0.0004520416259765625
ell 1038, elapsed: 0.0003910064697265625
ell 1037, elapsed: 0.0004620552062988281
ell 1036, elapsed: 0.0004930496215820312
ell 1035, elapsed: 0.0004558563232421875
ell 1034, elapsed: 0.0003859996795654297
ell 1033, elapsed: 0.0005888938903808594
ell 1032, elapsed: 0.0005152225494384766
ell 1031, elapsed: 0.0004589557647705078
ell 1030, elapsed: 0.00038504600524902344
ell 1029, elapsed: 0.0005419254302978516
ell 1028, elapsed: 0.0006318092346191406
ell 1027, elapsed: 0.0004410743713378906
ell 1026, elapsed: 0.0004830360412597656
ell 1025, elapsed: 0.0006151199340820312
ell 1024, elapsed: 0.0005328655242919922
ell 1023, elapsed: 0.0007059574127197266
ell 1022, elapsed: 0.000659942626953125
ell 1021, elapsed: 0.0004630088806152344
ell 1020, elapsed: 0.0004889965057373047
ell 1019, elapsed: 0.0007140636444091797
ell 1018, elapsed: 0.0004401206970214844
ell 1017, elapsed: 0.00044798851013183594
ell 1016, elapsed: 0.0003819465637207031
ell 1015, elapsed: 0.00045299530029296875
ell 1014, elapsed: 0.0004909038543701172
ell 1013, elapsed: 0.0004589557647705078
ell 1012, elapsed: 0.0003948211669921875
ell 1011, elapsed: 0.00044989585876464844
ell 1010, elapsed: 0.00038504600524902344
ell 1009, elapsed: 0.0004589557647705078
ell 1008, elapsed: 0.0003910064697265625
ell 1007, elapsed: 0.0004520416259765625
ell 1006, elapsed: 0.00049591064453125
ell 1005, elapsed: 0.0004611015319824219
ell 1004, elapsed: 0.0003859996795654297
ell 1003, elapsed: 0.0004551410675048828
ell 1002, elapsed: 0.00038313865661621094
ell 1001, elapsed: 0.0004608631134033203
ell 1000, elapsed: 0.00038695335388183594
ell 999, elapsed: 0.0004558563232421875
ell 998, elapsed: 0.0003921985626220703
ell 997, elapsed: 0.0005650520324707031
ell 996, elapsed: 0.00038909912109375
ell 995, elapsed: 0.00045108795166015625
ell 994, elapsed: 0.0003879070281982422
ell 993, elapsed: 0.00045108795166015625
ell 992, elapsed: 0.0005369186401367188
ell 991, elapsed: 0.0006449222564697266
ell 990, elapsed: 0.0003960132598876953
ell 989, elapsed: 0.000576019287109375
ell 988, elapsed: 0.0005137920379638672
ell 987, elapsed: 0.0005660057067871094
ell 986, elapsed: 0.00038313865661621094
ell 985, elapsed: 0.00045490264892578125
ell 984, elapsed: 0.000392913818359375
ell 983, elapsed: 0.00045800209045410156
ell 982, elapsed: 0.00038504600524902344
ell 981, elapsed: 0.0005648136138916016
ell 980, elapsed: 0.00039005279541015625
ell 979, elapsed: 0.0006349086761474609
ell 978, elapsed: 0.00045299530029296875
ell 977, elapsed: 0.00045180320739746094
ell 976, elapsed: 0.00039005279541015625
ell 975, elapsed: 0.00045299530029296875
ell 974, elapsed: 0.00045490264892578125
ell 973, elapsed: 0.0005991458892822266
ell 972, elapsed: 0.00038504600524902344
ell 971, elapsed: 0.00061798095703125
ell 970, elapsed: 0.0004761219024658203
ell 969, elapsed: 0.0004591941833496094
ell 968, elapsed: 0.00039315223693847656
ell 967, elapsed: 0.0005860328674316406
ell 966, elapsed: 0.0006139278411865234
ell 965, elapsed: 0.0004458427429199219
ell 964, elapsed: 0.00038886070251464844
ell 963, elapsed: 0.00045299530029296875
ell 962, elapsed: 0.0003859996795654297
ell 961, elapsed: 0.00045800209045410156
ell 960, elapsed: 0.00039005279541015625
ell 959, elapsed: 0.00045490264892578125
ell 958, elapsed: 0.00048804283142089844
ell 957, elapsed: 0.0004630088806152344
ell 956, elapsed: 0.0003840923309326172
ell 955, elapsed: 0.00055694580078125
ell 954, elapsed: 0.0005090236663818359
ell 953, elapsed: 0.00046181678771972656
ell 952, elapsed: 0.00039887428283691406
ell 951, elapsed: 0.0006489753723144531
ell 950, elapsed: 0.0004620552062988281
ell 949, elapsed: 0.0004611015319824219
ell 948, elapsed: 0.0003910064697265625
ell 947, elapsed: 0.0006148815155029297
ell 946, elapsed: 0.0004489421844482422
ell 945, elapsed: 0.000453948974609375
ell 944, elapsed: 0.0003821849822998047
ell 943, elapsed: 0.0004639625549316406
ell 942, elapsed: 0.0006191730499267578
ell 941, elapsed: 0.0005829334259033203
ell 940, elapsed: 0.0004668235778808594
ell 939, elapsed: 0.0006999969482421875
ell 938, elapsed: 0.0005750656127929688
ell 937, elapsed: 0.0006639957427978516
ell 936, elapsed: 0.0005629062652587891
ell 935, elapsed: 0.00047206878662109375
ell 934, elapsed: 0.0005950927734375
ell 933, elapsed: 0.0005731582641601562
ell 932, elapsed: 0.0004761219024658203
ell 931, elapsed: 0.0006260871887207031
ell 930, elapsed: 0.0004000663757324219
ell 929, elapsed: 0.0005080699920654297
ell 928, elapsed: 0.0003910064697265625
ell 927, elapsed: 0.00047087669372558594
ell 926, elapsed: 0.0003960132598876953
ell 925, elapsed: 0.00047707557678222656
ell 924, elapsed: 0.0003821849822998047
ell 923, elapsed: 0.0004589557647705078
ell 922, elapsed: 0.0003848075866699219
ell 921, elapsed: 0.00047898292541503906
ell 920, elapsed: 0.0003840923309326172
ell 919, elapsed: 0.0004570484161376953
ell 918, elapsed: 0.00038814544677734375
ell 917, elapsed: 0.0004620552062988281
ell 916, elapsed: 0.00038909912109375
ell 915, elapsed: 0.0004658699035644531
ell 914, elapsed: 0.00038886070251464844
ell 913, elapsed: 0.000453948974609375
ell 912, elapsed: 0.0004069805145263672
ell 911, elapsed: 0.0004551410675048828
ell 910, elapsed: 0.0003871917724609375
ell 909, elapsed: 0.00045013427734375
ell 908, elapsed: 0.0004591941833496094
ell 907, elapsed: 0.0006971359252929688
ell 906, elapsed: 0.0005421638488769531
ell 905, elapsed: 0.0004630088806152344
ell 904, elapsed: 0.0005199909210205078
ell 903, elapsed: 0.0005900859832763672
ell 902, elapsed: 0.0005319118499755859
ell 901, elapsed: 0.0006461143493652344
ell 900, elapsed: 0.00038909912109375
ell 899, elapsed: 0.0004658699035644531
ell 898, elapsed: 0.0003910064697265625
ell 897, elapsed: 0.0006499290466308594
ell 896, elapsed: 0.0004749298095703125
ell 895, elapsed: 0.0005731582641601562
ell 894, elapsed: 0.0005090236663818359
ell 893, elapsed: 0.0004470348358154297
ell 892, elapsed: 0.00038814544677734375
ell 891, elapsed: 0.00045299530029296875
ell 890, elapsed: 0.00039696693420410156
ell 889, elapsed: 0.0004630088806152344
ell 888, elapsed: 0.0005600452423095703
ell 887, elapsed: 0.0005838871002197266
ell 886, elapsed: 0.0003838539123535156
ell 885, elapsed: 0.00061798095703125
ell 884, elapsed: 0.00045108795166015625
ell 883, elapsed: 0.00045800209045410156
ell 882, elapsed: 0.0004520416259765625
ell 881, elapsed: 0.0007028579711914062
ell 880, elapsed: 0.0004551410675048828
ell 879, elapsed: 0.0004620552062988281
ell 878, elapsed: 0.0004818439483642578
ell 877, elapsed: 0.0005958080291748047
ell 876, elapsed: 0.00039505958557128906
ell 875, elapsed: 0.0005540847778320312
ell 874, elapsed: 0.0003829002380371094
ell 873, elapsed: 0.00045108795166015625
ell 872, elapsed: 0.0003838539123535156
ell 871, elapsed: 0.00045013427734375
ell 870, elapsed: 0.0003960132598876953
ell 869, elapsed: 0.00045490264892578125
ell 868, elapsed: 0.00038695335388183594
ell 867, elapsed: 0.00045418739318847656
ell 866, elapsed: 0.0005040168762207031
ell 865, elapsed: 0.0004570484161376953
ell 864, elapsed: 0.00038504600524902344
ell 863, elapsed: 0.00045800209045410156
ell 862, elapsed: 0.0003859996795654297
ell 861, elapsed: 0.00044989585876464844
ell 860, elapsed: 0.0005559921264648438
ell 859, elapsed: 0.0007059574127197266
ell 858, elapsed: 0.0005800724029541016
ell 857, elapsed: 0.0005519390106201172
ell 856, elapsed: 0.0005030632019042969
ell 855, elapsed: 0.0007090568542480469
ell 854, elapsed: 0.0005979537963867188
ell 853, elapsed: 0.0005691051483154297
ell 852, elapsed: 0.0005109310150146484
ell 851, elapsed: 0.0004639625549316406
ell 850, elapsed: 0.0004980564117431641
ell 849, elapsed: 0.0006120204925537109
ell 848, elapsed: 0.00039315223693847656
ell 847, elapsed: 0.0004611015319824219
ell 846, elapsed: 0.0004849433898925781
ell 845, elapsed: 0.0006518363952636719
ell 844, elapsed: 0.0003941059112548828
ell 843, elapsed: 0.00061798095703125
ell 842, elapsed: 0.000453948974609375
ell 841, elapsed: 0.0004448890686035156
ell 840, elapsed: 0.0003829002380371094
ell 839, elapsed: 0.0005521774291992188
ell 838, elapsed: 0.0005171298980712891
ell 837, elapsed: 0.0007178783416748047
ell 836, elapsed: 0.0005090236663818359
ell 835, elapsed: 0.0004570484161376953
ell 834, elapsed: 0.0003910064697265625
ell 833, elapsed: 0.00045299530029296875
ell 832, elapsed: 0.0005128383636474609
ell 831, elapsed: 0.0006060600280761719
ell 830, elapsed: 0.0005271434783935547
ell 829, elapsed: 0.0007009506225585938
ell 828, elapsed: 0.0004780292510986328
ell 827, elapsed: 0.00045299530029296875
ell 826, elapsed: 0.0003910064697265625
ell 825, elapsed: 0.0004551410675048828
ell 824, elapsed: 0.0003859996795654297
ell 823, elapsed: 0.0004742145538330078
ell 822, elapsed: 0.0004699230194091797
ell 821, elapsed: 0.0006449222564697266
ell 820, elapsed: 0.0005681514739990234
ell 819, elapsed: 0.0005450248718261719
ell 818, elapsed: 0.00048804283142089844
ell 817, elapsed: 0.0006229877471923828
ell 816, elapsed: 0.0005538463592529297
ell 815, elapsed: 0.0005781650543212891
ell 814, elapsed: 0.0005290508270263672
ell 813, elapsed: 0.0005788803100585938
ell 812, elapsed: 0.00038695335388183594
ell 811, elapsed: 0.0004470348358154297
ell 810, elapsed: 0.0003879070281982422
ell 809, elapsed: 0.0004451274871826172
ell 808, elapsed: 0.00048804283142089844
ell 807, elapsed: 0.0006239414215087891
ell 806, elapsed: 0.00045299530029296875
ell 805, elapsed: 0.00045418739318847656
ell 804, elapsed: 0.0003829002380371094
ell 803, elapsed: 0.00045990943908691406
ell 802, elapsed: 0.0003859996795654297
ell 801, elapsed: 0.00045490264892578125
ell 800, elapsed: 0.0004792213439941406
ell 799, elapsed: 0.00044989585876464844
ell 798, elapsed: 0.00038504600524902344
ell 797, elapsed: 0.0005631446838378906
ell 796, elapsed: 0.0005159378051757812
ell 795, elapsed: 0.00045418739318847656
ell 794, elapsed: 0.00039196014404296875
ell 793, elapsed: 0.0004642009735107422
ell 792, elapsed: 0.00047898292541503906
ell 791, elapsed: 0.00045299530029296875
ell 790, elapsed: 0.0003840923309326172
ell 789, elapsed: 0.0004520416259765625
ell 788, elapsed: 0.000553131103515625
ell 787, elapsed: 0.0005879402160644531
ell 786, elapsed: 0.0003859996795654297
ell 785, elapsed: 0.0004508495330810547
ell 784, elapsed: 0.0006570816040039062
ell 783, elapsed: 0.0005447864532470703
ell 782, elapsed: 0.00038504600524902344
ell 781, elapsed: 0.0004630088806152344
ell 780, elapsed: 0.0003879070281982422
ell 779, elapsed: 0.00045800209045410156
ell 778, elapsed: 0.00039386749267578125
ell 777, elapsed: 0.00045990943908691406
ell 776, elapsed: 0.0003941059112548828
ell 775, elapsed: 0.0004620552062988281
ell 774, elapsed: 0.0005619525909423828
ell 773, elapsed: 0.0005831718444824219
ell 772, elapsed: 0.0003910064697265625
ell 771, elapsed: 0.0004558563232421875
ell 770, elapsed: 0.00047206878662109375
ell 769, elapsed: 0.0007328987121582031
ell 768, elapsed: 0.0004608631134033203
ell 767, elapsed: 0.0007419586181640625
ell 766, elapsed: 0.0006330013275146484
ell 765, elapsed: 0.0006999969482421875
ell 764, elapsed: 0.0006098747253417969
ell 763, elapsed: 0.0008320808410644531
ell 762, elapsed: 0.0005040168762207031
ell 761, elapsed: 0.00045800209045410156
ell 760, elapsed: 0.0005650520324707031
ell 759, elapsed: 0.0005271434783935547
ell 758, elapsed: 0.00039196014404296875
ell 757, elapsed: 0.00046181678771972656
ell 756, elapsed: 0.0005030632019042969
ell 755, elapsed: 0.0004649162292480469
ell 754, elapsed: 0.0003840923309326172
ell 753, elapsed: 0.0004558563232421875
ell 752, elapsed: 0.00039505958557128906
ell 751, elapsed: 0.0006339550018310547
ell 750, elapsed: 0.0004489421844482422
ell 749, elapsed: 0.0004551410675048828
ell 748, elapsed: 0.0005030632019042969
ell 747, elapsed: 0.0004677772521972656
ell 746, elapsed: 0.00038504600524902344
ell 745, elapsed: 0.00045299530029296875
ell 744, elapsed: 0.0003879070281982422
ell 743, elapsed: 0.00045800209045410156
ell 742, elapsed: 0.0003859996795654297
ell 741, elapsed: 0.00044989585876464844
ell 740, elapsed: 0.0004889965057373047
ell 739, elapsed: 0.0004680156707763672
ell 738, elapsed: 0.0003800392150878906
ell 737, elapsed: 0.00045299530029296875
ell 736, elapsed: 0.00038504600524902344
ell 735, elapsed: 0.0004520416259765625
ell 734, elapsed: 0.0003859996795654297
ell 733, elapsed: 0.0004620552062988281
ell 732, elapsed: 0.00038814544677734375
ell 731, elapsed: 0.0005650520324707031
ell 730, elapsed: 0.0003859996795654297
ell 729, elapsed: 0.00045299530029296875
ell 728, elapsed: 0.00038504600524902344
ell 727, elapsed: 0.00045800209045410156
ell 726, elapsed: 0.0004661083221435547
ell 725, elapsed: 0.0006358623504638672
ell 724, elapsed: 0.0004639625549316406
ell 723, elapsed: 0.0007259845733642578
ell 722, elapsed: 0.0005550384521484375
ell 721, elapsed: 0.0007109642028808594
ell 720, elapsed: 0.0004918575286865234
ell 719, elapsed: 0.0005500316619873047
ell 718, elapsed: 0.0005528926849365234
ell 717, elapsed: 0.0008301734924316406
ell 716, elapsed: 0.00039696693420410156
ell 715, elapsed: 0.0006561279296875
ell 714, elapsed: 0.00044798851013183594
ell 713, elapsed: 0.0006530284881591797
ell 712, elapsed: 0.0005631446838378906
ell 711, elapsed: 0.0009670257568359375
ell 710, elapsed: 0.00038909912109375
ell 709, elapsed: 0.0008728504180908203
ell 708, elapsed: 0.00048804283142089844
ell 707, elapsed: 0.00046896934509277344
ell 706, elapsed: 0.00038504600524902344
ell 705, elapsed: 0.0007889270782470703
ell 704, elapsed: 0.0004200935363769531
ell 703, elapsed: 0.0006721019744873047
ell 702, elapsed: 0.0004279613494873047
ell 701, elapsed: 0.00045609474182128906
ell 700, elapsed: 0.0003941059112548828
ell 699, elapsed: 0.0006248950958251953
ell 698, elapsed: 0.0004360675811767578
ell 697, elapsed: 0.0006399154663085938
ell 696, elapsed: 0.00039005279541015625
ell 695, elapsed: 0.0004811286926269531
ell 694, elapsed: 0.0003898143768310547
ell 693, elapsed: 0.0004630088806152344
ell 692, elapsed: 0.0003910064697265625
ell 691, elapsed: 0.0004589557647705078
ell 690, elapsed: 0.0003809928894042969
ell 689, elapsed: 0.0008950233459472656
ell 688, elapsed: 0.0004029273986816406
ell 687, elapsed: 0.0006070137023925781
ell 686, elapsed: 0.0004849433898925781
ell 685, elapsed: 0.00045800209045410156
ell 684, elapsed: 0.00039005279541015625
ell 683, elapsed: 0.0004589557647705078
ell 682, elapsed: 0.00045108795166015625
ell 681, elapsed: 0.0004589557647705078
ell 680, elapsed: 0.00038909912109375
ell 679, elapsed: 0.00045299530029296875
ell 678, elapsed: 0.0005488395690917969
ell 677, elapsed: 0.0005350112915039062
ell 676, elapsed: 0.00038695335388183594
ell 675, elapsed: 0.0004611015319824219
ell 674, elapsed: 0.00046515464782714844
ell 673, elapsed: 0.0006380081176757812
ell 672, elapsed: 0.0005741119384765625
ell 671, elapsed: 0.0005800724029541016
ell 670, elapsed: 0.0004010200500488281
ell 669, elapsed: 0.0004749298095703125
ell 668, elapsed: 0.0003859996795654297
ell 667, elapsed: 0.0005409717559814453
ell 666, elapsed: 0.0003879070281982422
ell 665, elapsed: 0.00047087669372558594
ell 664, elapsed: 0.0003910064697265625
ell 663, elapsed: 0.00045800209045410156
ell 662, elapsed: 0.00038695335388183594
ell 661, elapsed: 0.000453948974609375
ell 660, elapsed: 0.0005249977111816406
ell 659, elapsed: 0.0006079673767089844
ell 658, elapsed: 0.0004940032958984375
ell 657, elapsed: 0.0005869865417480469
ell 656, elapsed: 0.00038814544677734375
ell 655, elapsed: 0.0006530284881591797
ell 654, elapsed: 0.0004379749298095703
ell 653, elapsed: 0.0004630088806152344
ell 652, elapsed: 0.00038886070251464844
ell 651, elapsed: 0.0007472038269042969
ell 650, elapsed: 0.0004239082336425781
ell 649, elapsed: 0.000453948974609375
ell 648, elapsed: 0.0003898143768310547
ell 647, elapsed: 0.0004620552062988281
ell 646, elapsed: 0.0003829002380371094
ell 645, elapsed: 0.0004611015319824219
ell 644, elapsed: 0.000614166259765625
ell 643, elapsed: 0.0005300045013427734
ell 642, elapsed: 0.0003879070281982422
ell 641, elapsed: 0.0004649162292480469
ell 640, elapsed: 0.000392913818359375
ell 639, elapsed: 0.00045108795166015625
ell 638, elapsed: 0.00039315223693847656
ell 637, elapsed: 0.0004620552062988281
ell 636, elapsed: 0.0003960132598876953
ell 635, elapsed: 0.0007071495056152344
ell 634, elapsed: 0.0005240440368652344
ell 633, elapsed: 0.0007159709930419922
ell 632, elapsed: 0.0006201267242431641
ell 631, elapsed: 0.0007150173187255859
ell 630, elapsed: 0.0006780624389648438
ell 629, elapsed: 0.0007150173187255859
ell 628, elapsed: 0.0006239414215087891
ell 627, elapsed: 0.0005359649658203125
ell 626, elapsed: 0.000392913818359375
ell 625, elapsed: 0.0005869865417480469
ell 624, elapsed: 0.0006120204925537109
ell 623, elapsed: 0.0005891323089599609
ell 622, elapsed: 0.0003809928894042969
ell 621, elapsed: 0.0005598068237304688
ell 620, elapsed: 0.0005230903625488281
ell 619, elapsed: 0.0006570816040039062
ell 618, elapsed: 0.0006201267242431641
ell 617, elapsed: 0.0007240772247314453
ell 616, elapsed: 0.0005698204040527344
ell 615, elapsed: 0.0006349086761474609
ell 614, elapsed: 0.000392913818359375
ell 613, elapsed: 0.0004630088806152344
ell 612, elapsed: 0.0005178451538085938
ell 611, elapsed: 0.0007071495056152344
ell 610, elapsed: 0.0004968643188476562
ell 609, elapsed: 0.0004680156707763672
ell 608, elapsed: 0.0004010200500488281
ell 607, elapsed: 0.0004489421844482422
ell 606, elapsed: 0.00038909912109375
ell 605, elapsed: 0.00045609474182128906
ell 604, elapsed: 0.00038886070251464844
ell 603, elapsed: 0.0004658699035644531
ell 602, elapsed: 0.00040793418884277344
ell 601, elapsed: 0.0004661083221435547
ell 600, elapsed: 0.00039005279541015625
ell 599, elapsed: 0.0004611015319824219
ell 598, elapsed: 0.00038909912109375
ell 597, elapsed: 0.0004630088806152344
ell 596, elapsed: 0.0003910064697265625
ell 595, elapsed: 0.00045490264892578125
ell 594, elapsed: 0.0003829002380371094
ell 593, elapsed: 0.0004909038543701172
ell 592, elapsed: 0.00039005279541015625
ell 591, elapsed: 0.00045609474182128906
ell 590, elapsed: 0.0003838539123535156
ell 589, elapsed: 0.00045299530029296875
ell 588, elapsed: 0.0003829002380371094
ell 587, elapsed: 0.0004649162292480469
ell 586, elapsed: 0.0003879070281982422
ell 585, elapsed: 0.0004489421844482422
ell 584, elapsed: 0.00040078163146972656
ell 583, elapsed: 0.0004630088806152344
ell 582, elapsed: 0.00038504600524902344
ell 581, elapsed: 0.0004558563232421875
ell 580, elapsed: 0.00038504600524902344
ell 579, elapsed: 0.0004570484161376953
ell 578, elapsed: 0.0003840923309326172
ell 577, elapsed: 0.00046515464782714844
ell 576, elapsed: 0.0003800392150878906
ell 575, elapsed: 0.0004680156707763672
ell 574, elapsed: 0.0003819465637207031
ell 573, elapsed: 0.00045490264892578125
ell 572, elapsed: 0.0003781318664550781
ell 571, elapsed: 0.0004508495330810547
ell 570, elapsed: 0.0005099773406982422
ell 569, elapsed: 0.0005769729614257812
ell 568, elapsed: 0.0004930496215820312
ell 567, elapsed: 0.0005948543548583984
ell 566, elapsed: 0.00038886070251464844
ell 565, elapsed: 0.0005791187286376953
ell 564, elapsed: 0.0005080699920654297
ell 563, elapsed: 0.00045800209045410156
ell 562, elapsed: 0.0004839897155761719
ell 561, elapsed: 0.0006220340728759766
ell 560, elapsed: 0.0004050731658935547
ell 559, elapsed: 0.0006380081176757812
ell 558, elapsed: 0.0005600452423095703
ell 557, elapsed: 0.0005910396575927734
ell 556, elapsed: 0.00038313865661621094
ell 555, elapsed: 0.00045800209045410156
ell 554, elapsed: 0.0003859996795654297
ell 553, elapsed: 0.000476837158203125
ell 552, elapsed: 0.00039005279541015625
ell 551, elapsed: 0.0004570484161376953
ell 550, elapsed: 0.0003910064697265625
ell 549, elapsed: 0.0004570484161376953
ell 548, elapsed: 0.0005638599395751953
ell 547, elapsed: 0.0005300045013427734
ell 546, elapsed: 0.0003910064697265625
ell 545, elapsed: 0.0004949569702148438
ell 544, elapsed: 0.00038695335388183594
ell 543, elapsed: 0.0004520416259765625
ell 542, elapsed: 0.0003979206085205078
ell 541, elapsed: 0.00044608116149902344
ell 540, elapsed: 0.0003819465637207031
ell 539, elapsed: 0.0004429817199707031
ell 538, elapsed: 0.00038909912109375
ell 537, elapsed: 0.00045990943908691406
ell 536, elapsed: 0.0005271434783935547
ell 535, elapsed: 0.0005559921264648438
ell 534, elapsed: 0.0003871917724609375
ell 533, elapsed: 0.00045490264892578125
ell 532, elapsed: 0.0003809928894042969
ell 531, elapsed: 0.0005948543548583984
ell 530, elapsed: 0.0005171298980712891
ell 529, elapsed: 0.00045108795166015625
ell 528, elapsed: 0.0004150867462158203
ell 527, elapsed: 0.0004591941833496094
ell 526, elapsed: 0.0003838539123535156
ell 525, elapsed: 0.00045990943908691406
ell 524, elapsed: 0.0003848075866699219
ell 523, elapsed: 0.00046181678771972656
ell 522, elapsed: 0.0003859996795654297
ell 521, elapsed: 0.00045800209045410156
ell 520, elapsed: 0.0005018711090087891
ell 519, elapsed: 0.0006680488586425781
ell 518, elapsed: 0.0005538463592529297
ell 517, elapsed: 0.0006058216094970703
ell 516, elapsed: 0.0004889965057373047
ell 515, elapsed: 0.00045990943908691406
ell 514, elapsed: 0.0003800392150878906
ell 513, elapsed: 0.00046515464782714844
ell 512, elapsed: 0.0003879070281982422
ell 511, elapsed: 0.0005891323089599609
ell 510, elapsed: 0.0004801750183105469
ell 509, elapsed: 0.0004520416259765625
ell 508, elapsed: 0.0005550384521484375
ell 507, elapsed: 0.0005807876586914062
ell 506, elapsed: 0.0003859996795654297
ell 505, elapsed: 0.00047206878662109375
ell 504, elapsed: 0.0003829002380371094
ell 503, elapsed: 0.0004620552062988281
ell 502, elapsed: 0.0003960132598876953
ell 501, elapsed: 0.0004649162292480469
ell 500, elapsed: 0.0003898143768310547
ell 499, elapsed: 0.0004341602325439453
ell 498, elapsed: 0.00037288665771484375
ell 497, elapsed: 0.0004470348358154297
ell 496, elapsed: 0.0005559921264648438
ell 495, elapsed: 0.0005509853363037109
ell 494, elapsed: 0.0003960132598876953
ell 493, elapsed: 0.0005600452423095703
ell 492, elapsed: 0.0005228519439697266
ell 491, elapsed: 0.000598907470703125
ell 490, elapsed: 0.0006158351898193359
ell 489, elapsed: 0.0005571842193603516
ell 488, elapsed: 0.0003941059112548828
ell 487, elapsed: 0.0004429817199707031
ell 486, elapsed: 0.0005419254302978516
ell 485, elapsed: 0.0006220340728759766
ell 484, elapsed: 0.0003941059112548828
ell 483, elapsed: 0.00045609474182128906
ell 482, elapsed: 0.00040793418884277344
ell 481, elapsed: 0.00046181678771972656
ell 480, elapsed: 0.00038909912109375
ell 479, elapsed: 0.00044989585876464844
ell 478, elapsed: 0.00045609474182128906
ell 477, elapsed: 0.0006260871887207031
ell 476, elapsed: 0.0005290508270263672
ell 475, elapsed: 0.0005578994750976562
ell 474, elapsed: 0.00039505958557128906
ell 473, elapsed: 0.00044798851013183594
ell 472, elapsed: 0.00049591064453125
ell 471, elapsed: 0.0006170272827148438
ell 470, elapsed: 0.0003910064697265625
ell 469, elapsed: 0.00044083595275878906
ell 468, elapsed: 0.0003879070281982422
ell 467, elapsed: 0.00045990943908691406
ell 466, elapsed: 0.0004029273986816406
ell 465, elapsed: 0.0004639625549316406
ell 464, elapsed: 0.0003948211669921875
ell 463, elapsed: 0.0004658699035644531
ell 462, elapsed: 0.0003910064697265625
ell 461, elapsed: 0.0005750656127929688
ell 460, elapsed: 0.0005140304565429688
ell 459, elapsed: 0.0005819797515869141
ell 458, elapsed: 0.0005309581756591797
ell 457, elapsed: 0.0006020069122314453
ell 456, elapsed: 0.0004930496215820312
ell 455, elapsed: 0.0006527900695800781
ell 454, elapsed: 0.0004980564117431641
ell 453, elapsed: 0.0004611015319824219
ell 452, elapsed: 0.00039196014404296875
ell 451, elapsed: 0.0006518363952636719
ell 450, elapsed: 0.0005359649658203125
ell 449, elapsed: 0.0007109642028808594
ell 448, elapsed: 0.0005700588226318359
ell 447, elapsed: 0.0005810260772705078
ell 446, elapsed: 0.00038695335388183594
ell 445, elapsed: 0.0006158351898193359
ell 444, elapsed: 0.0004949569702148438
ell 443, elapsed: 0.0004620552062988281
ell 442, elapsed: 0.00039196014404296875
ell 441, elapsed: 0.0006301403045654297
ell 440, elapsed: 0.0005199909210205078
ell 439, elapsed: 0.0004608631134033203
ell 438, elapsed: 0.000392913818359375
ell 437, elapsed: 0.0006501674652099609
ell 436, elapsed: 0.0005261898040771484
ell 435, elapsed: 0.0004649162292480469
ell 434, elapsed: 0.00039196014404296875
ell 433, elapsed: 0.0004570484161376953
ell 432, elapsed: 0.0003910064697265625
ell 431, elapsed: 0.00045299530029296875
ell 430, elapsed: 0.0003879070281982422
ell 429, elapsed: 0.0004811286926269531
ell 428, elapsed: 0.0003910064697265625
ell 427, elapsed: 0.00045990943908691406
ell 426, elapsed: 0.0005660057067871094
ell 425, elapsed: 0.0005331039428710938
ell 424, elapsed: 0.0005550384521484375
ell 423, elapsed: 0.0005311965942382812
ell 422, elapsed: 0.0003859996795654297
ell 421, elapsed: 0.00047397613525390625
ell 420, elapsed: 0.00038886070251464844
ell 419, elapsed: 0.00045800209045410156
ell 418, elapsed: 0.0003871917724609375
ell 417, elapsed: 0.00045800209045410156
ell 416, elapsed: 0.000392913818359375
ell 415, elapsed: 0.0005970001220703125
ell 414, elapsed: 0.0006210803985595703
ell 413, elapsed: 0.0005450248718261719
ell 412, elapsed: 0.00039005279541015625
ell 411, elapsed: 0.00045609474182128906
ell 410, elapsed: 0.00038695335388183594
ell 409, elapsed: 0.00044608116149902344
ell 408, elapsed: 0.00039315223693847656
ell 407, elapsed: 0.00045299530029296875
ell 406, elapsed: 0.00037789344787597656
ell 405, elapsed: 0.0004889965057373047
ell 404, elapsed: 0.0003859996795654297
ell 403, elapsed: 0.00044798851013183594
ell 402, elapsed: 0.00038123130798339844
ell 401, elapsed: 0.00045180320739746094
ell 400, elapsed: 0.0003879070281982422
ell 399, elapsed: 0.00045490264892578125
ell 398, elapsed: 0.0005328655242919922
ell 397, elapsed: 0.0005719661712646484
ell 396, elapsed: 0.0003809928894042969
ell 395, elapsed: 0.00045609474182128906
ell 394, elapsed: 0.00038695335388183594
ell 393, elapsed: 0.0004520416259765625
ell 392, elapsed: 0.00038695335388183594
ell 391, elapsed: 0.00045013427734375
ell 390, elapsed: 0.0003898143768310547
ell 389, elapsed: 0.000453948974609375
ell 388, elapsed: 0.00040912628173828125
ell 387, elapsed: 0.00045800209045410156
ell 386, elapsed: 0.0003840923309326172
ell 385, elapsed: 0.0004630088806152344
ell 384, elapsed: 0.00038695335388183594
ell 383, elapsed: 0.0004620552062988281
ell 382, elapsed: 0.00038886070251464844
ell 381, elapsed: 0.0004470348358154297
ell 380, elapsed: 0.0003859996795654297
ell 379, elapsed: 0.00047588348388671875
ell 378, elapsed: 0.0003879070281982422
ell 377, elapsed: 0.000453948974609375
ell 376, elapsed: 0.00038504600524902344
ell 375, elapsed: 0.0004589557647705078
ell 374, elapsed: 0.00038504600524902344
ell 373, elapsed: 0.00045490264892578125
ell 372, elapsed: 0.00038504600524902344
ell 371, elapsed: 0.0004558563232421875
ell 370, elapsed: 0.00041103363037109375
ell 369, elapsed: 0.0004608631134033203
ell 368, elapsed: 0.0003898143768310547
ell 367, elapsed: 0.00047397613525390625
ell 366, elapsed: 0.0003840923309326172
ell 365, elapsed: 0.00047898292541503906
ell 364, elapsed: 0.00039005279541015625
ell 363, elapsed: 0.00045990943908691406
ell 362, elapsed: 0.0004069805145263672
ell 361, elapsed: 0.0004630088806152344
ell 360, elapsed: 0.0003910064697265625
ell 359, elapsed: 0.00044989585876464844
ell 358, elapsed: 0.0003898143768310547
ell 357, elapsed: 0.0004589557647705078
ell 356, elapsed: 0.00038695335388183594
ell 355, elapsed: 0.0004630088806152344
ell 354, elapsed: 0.0003829002380371094
ell 353, elapsed: 0.0004851818084716797
ell 352, elapsed: 0.0003838539123535156
ell 351, elapsed: 0.0004620552062988281
ell 350, elapsed: 0.0003829002380371094
ell 349, elapsed: 0.00045800209045410156
ell 348, elapsed: 0.0003981590270996094
ell 347, elapsed: 0.000453948974609375
ell 346, elapsed: 0.00038504600524902344
ell 345, elapsed: 0.0004558563232421875
ell 344, elapsed: 0.00041294097900390625
ell 343, elapsed: 0.00045990943908691406
ell 342, elapsed: 0.0003809928894042969
ell 341, elapsed: 0.00045800209045410156
ell 340, elapsed: 0.0003848075866699219
ell 339, elapsed: 0.00044918060302734375
ell 338, elapsed: 0.0003859996795654297
ell 337, elapsed: 0.00045609474182128906
ell 336, elapsed: 0.0004069805145263672
ell 335, elapsed: 0.0004711151123046875
ell 334, elapsed: 0.00038886070251464844
ell 333, elapsed: 0.0004630088806152344
ell 332, elapsed: 0.0003838539123535156
ell 331, elapsed: 0.000453948974609375
ell 330, elapsed: 0.0003838539123535156
ell 329, elapsed: 0.00045299530029296875
ell 328, elapsed: 0.0003859996795654297
ell 327, elapsed: 0.0006129741668701172
ell 326, elapsed: 0.0004749298095703125
ell 325, elapsed: 0.0004520416259765625
ell 324, elapsed: 0.00038504600524902344
ell 323, elapsed: 0.0004558563232421875
ell 322, elapsed: 0.0003879070281982422
ell 321, elapsed: 0.000453948974609375
ell 320, elapsed: 0.00038909912109375
ell 319, elapsed: 0.00047898292541503906
ell 318, elapsed: 0.00040984153747558594
ell 317, elapsed: 0.0004608631134033203
ell 316, elapsed: 0.0003871917724609375
ell 315, elapsed: 0.0004620552062988281
ell 314, elapsed: 0.0005621910095214844
ell 313, elapsed: 0.0005190372467041016
ell 312, elapsed: 0.0005619525909423828
ell 311, elapsed: 0.0007269382476806641
ell 310, elapsed: 0.0005900859832763672
ell 309, elapsed: 0.0005800724029541016
ell 308, elapsed: 0.0003948211669921875
ell 307, elapsed: 0.00046181678771972656
ell 306, elapsed: 0.0005669593811035156
ell 305, elapsed: 0.000720977783203125
ell 304, elapsed: 0.00046896934509277344
ell 303, elapsed: 0.0005931854248046875
ell 302, elapsed: 0.0005171298980712891
ell 301, elapsed: 0.0006279945373535156
ell 300, elapsed: 0.00046515464782714844
ell 299, elapsed: 0.0006549358367919922
ell 298, elapsed: 0.0004699230194091797
ell 297, elapsed: 0.0006167888641357422
ell 296, elapsed: 0.0004911422729492188
ell 295, elapsed: 0.0006330013275146484
ell 294, elapsed: 0.00046896934509277344
ell 293, elapsed: 0.0004570484161376953
ell 292, elapsed: 0.00038504600524902344
ell 291, elapsed: 0.0004508495330810547
ell 290, elapsed: 0.0004088878631591797
ell 289, elapsed: 0.0005459785461425781
ell 288, elapsed: 0.0005450248718261719
ell 287, elapsed: 0.00045800209045410156
ell 286, elapsed: 0.0004000663757324219
ell 285, elapsed: 0.0004620552062988281
ell 284, elapsed: 0.0003879070281982422
ell 283, elapsed: 0.0006320476531982422
ell 282, elapsed: 0.00047206878662109375
ell 281, elapsed: 0.0004749298095703125
ell 280, elapsed: 0.0004000663757324219
ell 279, elapsed: 0.0005841255187988281
ell 278, elapsed: 0.0005049705505371094
ell 277, elapsed: 0.00047087669372558594
ell 276, elapsed: 0.0004019737243652344
ell 275, elapsed: 0.0004940032958984375
ell 274, elapsed: 0.00039696693420410156
ell 273, elapsed: 0.0004601478576660156
ell 272, elapsed: 0.0003840923309326172
ell 271, elapsed: 0.0004699230194091797
ell 270, elapsed: 0.00041604042053222656
ell 269, elapsed: 0.0006361007690429688
ell 268, elapsed: 0.0004482269287109375
ell 267, elapsed: 0.00048613548278808594
ell 266, elapsed: 0.00038504600524902344
ell 265, elapsed: 0.00046515464782714844
ell 264, elapsed: 0.00038504600524902344
ell 263, elapsed: 0.000453948974609375
ell 262, elapsed: 0.00038814544677734375
ell 261, elapsed: 0.00045800209045410156
ell 260, elapsed: 0.0004589557647705078
ell 259, elapsed: 0.0006740093231201172
ell 258, elapsed: 0.00039196014404296875
ell 257, elapsed: 0.0004620552062988281
ell 256, elapsed: 0.0003848075866699219
ell 255, elapsed: 0.0004611015319824219
ell 254, elapsed: 0.00038504600524902344
ell 253, elapsed: 0.0004570484161376953
ell 252, elapsed: 0.0003859996795654297
ell 251, elapsed: 0.00045990943908691406
ell 250, elapsed: 0.00040602684020996094
ell 249, elapsed: 0.00045800209045410156
ell 248, elapsed: 0.00039005279541015625
ell 247, elapsed: 0.0004611015319824219
ell 246, elapsed: 0.0003910064697265625
ell 245, elapsed: 0.00046706199645996094
ell 244, elapsed: 0.0004990100860595703
ell 243, elapsed: 0.0005929470062255859
ell 242, elapsed: 0.0005609989166259766
ell 241, elapsed: 0.0007131099700927734
ell 240, elapsed: 0.0004630088806152344
ell 239, elapsed: 0.0004680156707763672
ell 238, elapsed: 0.0005130767822265625
ell 237, elapsed: 0.0005970001220703125
ell 236, elapsed: 0.0004439353942871094
ell 235, elapsed: 0.0007309913635253906
ell 234, elapsed: 0.0004911422729492188
ell 233, elapsed: 0.00046706199645996094
ell 232, elapsed: 0.0003960132598876953
ell 231, elapsed: 0.0005800724029541016
ell 230, elapsed: 0.0005159378051757812
ell 229, elapsed: 0.00045800209045410156
ell 228, elapsed: 0.0005121231079101562
ell 227, elapsed: 0.0005898475646972656
ell 226, elapsed: 0.00038695335388183594
ell 225, elapsed: 0.0004730224609375
ell 224, elapsed: 0.000514984130859375
ell 223, elapsed: 0.000579833984375
ell 222, elapsed: 0.0005488395690917969
ell 221, elapsed: 0.0005390644073486328
ell 220, elapsed: 0.0003941059112548828
ell 219, elapsed: 0.0004620552062988281
ell 218, elapsed: 0.00038886070251464844
ell 217, elapsed: 0.0004611015319824219
ell 216, elapsed: 0.00039505958557128906
ell 215, elapsed: 0.00046706199645996094
ell 214, elapsed: 0.0004000663757324219
ell 213, elapsed: 0.00048279762268066406
ell 212, elapsed: 0.00039887428283691406
ell 211, elapsed: 0.00046896934509277344
ell 210, elapsed: 0.00039196014404296875
ell 209, elapsed: 0.0006139278411865234
ell 208, elapsed: 0.0006051063537597656
ell 207, elapsed: 0.0006289482116699219
ell 206, elapsed: 0.0003948211669921875
ell 205, elapsed: 0.0004901885986328125
ell 204, elapsed: 0.000392913818359375
ell 203, elapsed: 0.00045990943908691406
ell 202, elapsed: 0.0003941059112548828
ell 201, elapsed: 0.00046706199645996094
ell 200, elapsed: 0.0003981590270996094
ell 199, elapsed: 0.0006449222564697266
ell 198, elapsed: 0.0004799365997314453
ell 197, elapsed: 0.0006439685821533203
ell 196, elapsed: 0.0005831718444824219
ell 195, elapsed: 0.0005860328674316406
ell 194, elapsed: 0.0005080699920654297
ell 193, elapsed: 0.0006229877471923828
ell 192, elapsed: 0.0005538463592529297
ell 191, elapsed: 0.0005710124969482422
ell 190, elapsed: 0.00039005279541015625
ell 189, elapsed: 0.0006389617919921875
ell 188, elapsed: 0.0004489421844482422
ell 187, elapsed: 0.0004630088806152344
ell 186, elapsed: 0.0005819797515869141
ell 185, elapsed: 0.0007300376892089844
ell 184, elapsed: 0.0006229877471923828
ell 183, elapsed: 0.0005521774291992188
ell 182, elapsed: 0.0005609989166259766
ell 181, elapsed: 0.0006339550018310547
ell 180, elapsed: 0.0005018711090087891
ell 179, elapsed: 0.0005931854248046875
ell 178, elapsed: 0.00039315223693847656
ell 177, elapsed: 0.00045299530029296875
ell 176, elapsed: 0.0003879070281982422
ell 175, elapsed: 0.0004680156707763672
ell 174, elapsed: 0.0003910064697265625
ell 173, elapsed: 0.0006451606750488281
ell 172, elapsed: 0.00044798851013183594
ell 171, elapsed: 0.0004658699035644531
ell 170, elapsed: 0.0003960132598876953
ell 169, elapsed: 0.0005629062652587891
ell 168, elapsed: 0.0005400180816650391
ell 167, elapsed: 0.0006210803985595703
ell 166, elapsed: 0.00047397613525390625
ell 165, elapsed: 0.0004668235778808594
ell 164, elapsed: 0.0004630088806152344
ell 163, elapsed: 0.0006690025329589844
ell 162, elapsed: 0.00039505958557128906
ell 161, elapsed: 0.0004699230194091797
ell 160, elapsed: 0.0004000663757324219
ell 159, elapsed: 0.00046515464782714844
ell 158, elapsed: 0.000392913818359375
ell 157, elapsed: 0.0004520416259765625
ell 156, elapsed: 0.0003821849822998047
ell 155, elapsed: 0.0006070137023925781
ell 154, elapsed: 0.0005028247833251953
ell 153, elapsed: 0.0006620883941650391
ell 152, elapsed: 0.0005390644073486328
ell 151, elapsed: 0.0005340576171875
ell 150, elapsed: 0.0007131099700927734
ell 149, elapsed: 0.0008420944213867188
ell 148, elapsed: 0.0006661415100097656
ell 147, elapsed: 0.0007870197296142578
ell 146, elapsed: 0.0006580352783203125
ell 145, elapsed: 0.0006079673767089844
ell 144, elapsed: 0.00047087669372558594
ell 143, elapsed: 0.00047397613525390625
ell 142, elapsed: 0.0003941059112548828
ell 141, elapsed: 0.00045490264892578125
ell 140, elapsed: 0.0003859996795654297
ell 139, elapsed: 0.00045680999755859375
ell 138, elapsed: 0.0003921985626220703
ell 137, elapsed: 0.0008709430694580078
ell 136, elapsed: 0.0004918575286865234
ell 135, elapsed: 0.0004780292510986328
ell 134, elapsed: 0.00039196014404296875
ell 133, elapsed: 0.0004570484161376953
ell 132, elapsed: 0.0003941059112548828
ell 131, elapsed: 0.0006618499755859375
ell 130, elapsed: 0.0006129741668701172
ell 129, elapsed: 0.0005640983581542969
ell 128, elapsed: 0.0004601478576660156
ell 127, elapsed: 0.0006470680236816406
ell 126, elapsed: 0.0005280971527099609
ell 125, elapsed: 0.0005829334259033203
ell 124, elapsed: 0.00039196014404296875
ell 123, elapsed: 0.0004661083221435547
ell 122, elapsed: 0.0005369186401367188
ell 121, elapsed: 0.0005450248718261719
ell 120, elapsed: 0.0003838539123535156
ell 119, elapsed: 0.0004520416259765625
ell 118, elapsed: 0.0005540847778320312
ell 117, elapsed: 0.0006310939788818359
ell 116, elapsed: 0.0006308555603027344
ell 115, elapsed: 0.0005140304565429688
ell 114, elapsed: 0.0005130767822265625
ell 113, elapsed: 0.0005948543548583984
ell 112, elapsed: 0.0005671977996826172
ell 111, elapsed: 0.0007040500640869141
ell 110, elapsed: 0.0006079673767089844
ell 109, elapsed: 0.0007100105285644531
ell 108, elapsed: 0.0006110668182373047
ell 107, elapsed: 0.0008749961853027344
ell 106, elapsed: 0.0006129741668701172
ell 105, elapsed: 0.000698089599609375
ell 104, elapsed: 0.000675201416015625
ell 103, elapsed: 0.0007669925689697266
ell 102, elapsed: 0.0007288455963134766
ell 101, elapsed: 0.0007679462432861328
ell 100, elapsed: 0.000614166259765625
ell 99, elapsed: 0.0006120204925537109
ell 98, elapsed: 0.0006060600280761719
ell 97, elapsed: 0.0006000995635986328
ell 96, elapsed: 0.0004210472106933594
ell 95, elapsed: 0.0007200241088867188
ell 94, elapsed: 0.0004448890686035156
ell 93, elapsed: 0.0006859302520751953
ell 92, elapsed: 0.0006880760192871094
ell 91, elapsed: 0.0006830692291259766
ell 90, elapsed: 0.0004668235778808594
ell 89, elapsed: 0.0007300376892089844
ell 88, elapsed: 0.0004470348358154297
ell 87, elapsed: 0.0007500648498535156
ell 86, elapsed: 0.0007269382476806641
ell 85, elapsed: 0.0005948543548583984
ell 84, elapsed: 0.00049591064453125
ell 83, elapsed: 0.0005791187286376953
ell 82, elapsed: 0.00044417381286621094
ell 81, elapsed: 0.0005190372467041016
ell 80, elapsed: 0.0004458427429199219
ell 79, elapsed: 0.0007250308990478516
ell 78, elapsed: 0.0004169940948486328
ell 77, elapsed: 0.0006489753723144531
ell 76, elapsed: 0.0006439685821533203
ell 75, elapsed: 0.000782012939453125
ell 74, elapsed: 0.0006570816040039062
ell 73, elapsed: 0.0007710456848144531
ell 72, elapsed: 0.000720977783203125
ell 71, elapsed: 0.0007698535919189453
ell 70, elapsed: 0.0006458759307861328
ell 69, elapsed: 0.0006160736083984375
ell 68, elapsed: 0.0008039474487304688
ell 67, elapsed: 0.0007588863372802734
ell 66, elapsed: 0.0006639957427978516
ell 65, elapsed: 0.0007619857788085938
ell 64, elapsed: 0.0006680488586425781
ell 63, elapsed: 0.0006017684936523438
ell 62, elapsed: 0.000431060791015625
ell 61, elapsed: 0.000514984130859375
ell 60, elapsed: 0.0005841255187988281
ell 59, elapsed: 0.0005609989166259766
ell 58, elapsed: 0.0004367828369140625
ell 57, elapsed: 0.0007610321044921875
ell 56, elapsed: 0.0004379749298095703
ell 55, elapsed: 0.0006458759307861328
ell 54, elapsed: 0.0004839897155761719
ell 53, elapsed: 0.0007271766662597656
ell 52, elapsed: 0.0005199909210205078
ell 51, elapsed: 0.0005221366882324219
ell 50, elapsed: 0.0004398822784423828
ell 49, elapsed: 0.0005118846893310547
ell 48, elapsed: 0.0004398822784423828
ell 47, elapsed: 0.0005140304565429688
ell 46, elapsed: 0.0004470348358154297
ell 45, elapsed: 0.0005810260772705078
ell 44, elapsed: 0.0006129741668701172
ell 43, elapsed: 0.0006151199340820312
ell 42, elapsed: 0.00043702125549316406
ell 41, elapsed: 0.0005190372467041016
ell 40, elapsed: 0.0005481243133544922
ell 39, elapsed: 0.0005998611450195312
ell 38, elapsed: 0.0005919933319091797
ell 37, elapsed: 0.0007998943328857422
ell 36, elapsed: 0.0008001327514648438
ell 35, elapsed: 0.0005440711975097656
ell 34, elapsed: 0.0004410743713378906
ell 33, elapsed: 0.0007150173187255859
ell 32, elapsed: 0.000514984130859375
ell 31, elapsed: 0.0005321502685546875
ell 30, elapsed: 0.0004799365997314453
ell 29, elapsed: 0.0005040168762207031
ell 28, elapsed: 0.00045990943908691406
ell 27, elapsed: 0.0005309581756591797
ell 26, elapsed: 0.00045299530029296875
ell 25, elapsed: 0.0005278587341308594
ell 24, elapsed: 0.0004799365997314453
ell 23, elapsed: 0.0005440711975097656
ell 22, elapsed: 0.0005540847778320312
ell 21, elapsed: 0.0005910396575927734
ell 20, elapsed: 0.0005538463592529297
ell 19, elapsed: 0.0007028579711914062
ell 18, elapsed: 0.0006082057952880859
ell 17, elapsed: 0.0005650520324707031
ell 16, elapsed: 0.00043392181396484375
ell 15, elapsed: 0.0005180835723876953
ell 14, elapsed: 0.0004429817199707031
ell 13, elapsed: 0.0005469322204589844
ell 12, elapsed: 0.0004439353942871094
ell 11, elapsed: 0.0005171298980712891
ell 10, elapsed: 0.0004420280456542969
ell 9, elapsed: 0.000698089599609375
ell 8, elapsed: 0.00045609474182128906
ell 7, elapsed: 0.0007548332214355469
ell 6, elapsed: 0.000453948974609375
ell 5, elapsed: 0.0005180835723876953
ell 4, elapsed: 0.0004458427429199219
ell 3, elapsed: 0.0005218982696533203
ell 2, elapsed: 0.0004439353942871094
ell 1, elapsed: 0.0005049705505371094
ell 0, elapsed: 0.0006430149078369141
  0.679541 seconds (41.19 k allocations: 2.940 MiB)
elapsed: 0.0011081695556640625
step:          0.067431 sec (0 allocations: 0 byte, 0.0% gc time)
swapping:      0.000919 sec (0 allocations: 0 byte, 0.0% gc time)
calc_Mellell!: 0.011506 sec (0 allocations: 0 byte, 0.0% gc time)
  t0 :  0.002946 sec (0 allocations: 0 byte, 0.0% gc time)
  tm2 : 0.101602 sec (0 allocations: 0 byte, 0.0% gc time)
  tm2s: 0.002329 sec (0 allocations: 0 byte, 0.0% gc time)
  tm4 : 0.264406 sec (0 allocations: 0 byte, 0.0% gc time)
  tp2 : 0.0 sec (0 allocations: 0 byte, 0.0% gc time)
  tp2s: 0.0 sec (0 allocations: 0 byte, 0.0% gc time)
  tp4 : 0.0 sec (0 allocations: 0 byte, 0.0% gc time)
calc_wtdll!:   0.390383 sec (9.874 k allocations: 1.043 MB, 0.0% gc time)
calc_wljj!:    0.044009 sec (689 allocations: 10.766 KB, 0.0% gc time)
mult_prefac!:  0.0 sec (0 allocations: 0 byte, 0.0% gc time)
convert:       0.0 sec (0 allocations: 0 byte, 0.0% gc time)
write:         0.050787 sec (0 allocations: 0 byte, 0.0% gc time)
test_rand_2f1: 0.0 sec (0 allocations: 0 byte, 0.0% gc time)
Closing outfile out/Ml21-cache.bin...   0.000052 seconds
  0.000533 seconds (51 allocations: 28.281 KiB)
make_phi():   0.002503 seconds (8.20 k allocations: 238.000 KiB)
  0.194726 seconds (146.69 k allocations: 3.629 MiB)
tskip:       0.000933 sec (0 allocations: 0 byte, 0.0% gc time)
tread:       0.0293 sec (19 allocations: 10.688 KB, 0.0% gc time)
tmultphi:    0.013715 sec (0 allocations: 0 byte, 0.0% gc time)
tbrfft:      0.045283 sec (9.592 k allocations: 449.625 KB, 0.0% gc time)
tmultprefac: 0.039494 sec (0 allocations: 0 byte, 0.0% gc time)
toutfunc:    0.063806 sec (129.905 k allocations: 2.421 MB, 0.0% gc time)
Testing R=1.0 ... passed
Calculating fmax: 
  dlrec    = 4
  dlrecRg1 = -4
  q=1.1, R=0.9:	  0.466453 seconds (116.47 k allocations: 15.614 MiB)

  0.466709 seconds (116.50 k allocations: 15.647 MiB)
ℓ = 1202
Δℓ = 4
ΔℓRg1 = -4
N = 1600
q = 1.1
kmin = 1.0e-5
kmax = 100000.00000000004
χ0 = 0.023029999999999995
RR = RR.tsv
ℓmax = ℓmax.bin
f21 = f21.bin
kmin = 1.0e-5
kmax = 100000.0
dlrec    = 4
dlrecRg1 = -4
Output size: 5741568 bytes = 0.005347251892089844 GiB
Output size: 51264 bytes = 4.774332046508789e-5 GiB
Reading 'out/F21EllCache'...   0.001067 seconds (267 allocations: 84.656 KiB)
ellmax: 1202
lmaxcache: 1202
fell[:,1,1] = Complex{Float64}[1.3482014726274674e-57 - 3.302141236118086e-73im, 1.357860004724329e-57 - 3.3257978169518355e-73im]
ell 1202, elapsed: 1.8835067749023438e-5
ell 1201, elapsed: 0.0004138946533203125
ell 1200, elapsed: 0.0004909038543701172
ell 1199, elapsed: 0.0005741119384765625
ell 1198, elapsed: 0.0006821155548095703
ell 1002, elapsed: 0.009413003921508789
ell 1001, elapsed: 0.0004589557647705078
ell 1000, elapsed: 0.0005600452423095703
ell 999, elapsed: 0.0005509853363037109
ell 998, elapsed: 0.0005538463592529297
ell 902, elapsed: 0.005543947219848633
ell 901, elapsed: 0.00036907196044921875
ell 900, elapsed: 0.0004928112030029297
ell 899, elapsed: 0.0005409717559814453
ell 898, elapsed: 0.000537872314453125
ell 802, elapsed: 0.005295991897583008
ell 801, elapsed: 0.0005099773406982422
ell 800, elapsed: 0.0005340576171875
ell 799, elapsed: 0.0005388259887695312
ell 798, elapsed: 0.0005550384521484375
ell 702, elapsed: 0.005053043365478516
ell 701, elapsed: 0.0003619194030761719
ell 700, elapsed: 0.0004940032958984375
ell 699, elapsed: 0.0005450248718261719
ell 698, elapsed: 0.0005340576171875
ell 602, elapsed: 0.005056142807006836
ell 601, elapsed: 0.0004570484161376953
ell 600, elapsed: 0.0004668235778808594
ell 599, elapsed: 0.0005350112915039062
ell 598, elapsed: 0.0005350112915039062
ell 502, elapsed: 0.005599021911621094
ell 501, elapsed: 0.0005671977996826172
ell 500, elapsed: 0.0004439353942871094
ell 499, elapsed: 0.0005099773406982422
ell 498, elapsed: 0.00047016143798828125
ell 402, elapsed: 0.005485057830810547
ell 401, elapsed: 0.0004999637603759766
ell 400, elapsed: 0.0004999637603759766
ell 399, elapsed: 0.0004680156707763672
ell 398, elapsed: 0.0004980564117431641
ell 302, elapsed: 0.005136013031005859
ell 301, elapsed: 0.0003590583801269531
ell 300, elapsed: 0.0004181861877441406
ell 299, elapsed: 0.0005588531494140625
ell 298, elapsed: 0.0005061626434326172
ell 202, elapsed: 0.005307197570800781
ell 201, elapsed: 0.0005130767822265625
ell 200, elapsed: 0.00044417381286621094
ell 199, elapsed: 0.000492095947265625
ell 198, elapsed: 0.0005540847778320312
ell 152, elapsed: 0.0030450820922851562
ell 151, elapsed: 0.000370025634765625
ell 150, elapsed: 0.00035691261291503906
ell 149, elapsed: 0.00041794776916503906
ell 148, elapsed: 0.0005450248718261719
ell 127, elapsed: 0.001806020736694336
ell 126, elapsed: 0.0005078315734863281
ell 125, elapsed: 0.0005578994750976562
ell 124, elapsed: 0.00047707557678222656
ell 123, elapsed: 0.000492095947265625
ell 114, elapsed: 0.0009920597076416016
ell 113, elapsed: 0.0005021095275878906
ell 112, elapsed: 0.0005619525909423828
ell 111, elapsed: 0.0005168914794921875
ell 110, elapsed: 0.0004229545593261719
ell 102, elapsed: 0.001074075698852539
ell 101, elapsed: 0.00036406517028808594
ell 100, elapsed: 0.00051116943359375
ell 99, elapsed: 0.0005550384521484375
ell 98, elapsed: 0.0005519390106201172
ell 97, elapsed: 0.0006458759307861328
ell 96, elapsed: 0.0005810260772705078
ell 95, elapsed: 0.0006189346313476562
ell 94, elapsed: 0.0006279945373535156
ell 93, elapsed: 0.0003769397735595703
ell 92, elapsed: 0.0004639625549316406
ell 91, elapsed: 0.0005221366882324219
ell 90, elapsed: 0.0008261203765869141
ell 89, elapsed: 0.0006129741668701172
ell 88, elapsed: 0.0006990432739257812
ell 87, elapsed: 0.0004930496215820312
ell 86, elapsed: 0.0006201267242431641
ell 85, elapsed: 0.0005891323089599609
ell 84, elapsed: 0.0006699562072753906
ell 83, elapsed: 0.0005331039428710938
ell 82, elapsed: 0.0006239414215087891
ell 81, elapsed: 0.0005388259887695312
ell 80, elapsed: 0.0006930828094482422
ell 79, elapsed: 0.0004780292510986328
ell 78, elapsed: 0.0006830692291259766
ell 77, elapsed: 0.0006270408630371094
ell 76, elapsed: 0.0005269050598144531
ell 75, elapsed: 0.0004849433898925781
ell 74, elapsed: 0.0006759166717529297
ell 73, elapsed: 0.0005080699920654297
ell 72, elapsed: 0.0007519721984863281
ell 71, elapsed: 0.0004830360412597656
ell 70, elapsed: 0.0006949901580810547
ell 69, elapsed: 0.0005981922149658203
ell 68, elapsed: 0.0006959438323974609
ell 67, elapsed: 0.0005269050598144531
ell 66, elapsed: 0.0007548332214355469
ell 65, elapsed: 0.0004818439483642578
ell 64, elapsed: 0.0006809234619140625
ell 63, elapsed: 0.0004620552062988281
ell 62, elapsed: 0.0005779266357421875
ell 61, elapsed: 0.0005211830139160156
ell 60, elapsed: 0.0004410743713378906
ell 59, elapsed: 0.0006780624389648438
ell 58, elapsed: 0.0006988048553466797
ell 57, elapsed: 0.0005359649658203125
ell 56, elapsed: 0.0006468296051025391
ell 55, elapsed: 0.00061798095703125
ell 54, elapsed: 0.0006921291351318359
ell 53, elapsed: 0.0007338523864746094
ell 52, elapsed: 0.0006861686706542969
ell 51, elapsed: 0.0005328655242919922
ell 50, elapsed: 0.00043892860412597656
ell 49, elapsed: 0.00046706199645996094
ell 48, elapsed: 0.0006940364837646484
ell 47, elapsed: 0.0007340908050537109
ell 46, elapsed: 0.0005319118499755859
ell 45, elapsed: 0.00038909912109375
ell 44, elapsed: 0.0006551742553710938
ell 43, elapsed: 0.0004341602325439453
ell 42, elapsed: 0.0006229877471923828
ell 41, elapsed: 0.00055694580078125
ell 40, elapsed: 0.0007870197296142578
ell 39, elapsed: 0.0003769397735595703
ell 38, elapsed: 0.0006399154663085938
ell 37, elapsed: 0.0006060600280761719
ell 36, elapsed: 0.0006861686706542969
ell 35, elapsed: 0.0006000995635986328
ell 34, elapsed: 0.00102996826171875
ell 33, elapsed: 0.0005419254302978516
ell 32, elapsed: 0.0006799697875976562
ell 31, elapsed: 0.0005929470062255859
ell 30, elapsed: 0.0006661415100097656
ell 29, elapsed: 0.0007381439208984375
ell 28, elapsed: 0.0005159378051757812
ell 27, elapsed: 0.0005447864532470703
ell 26, elapsed: 0.00067901611328125
ell 25, elapsed: 0.0004940032958984375
ell 24, elapsed: 0.0006198883056640625
ell 23, elapsed: 0.0004611015319824219
ell 22, elapsed: 0.0008170604705810547
ell 21, elapsed: 0.0006120204925537109
ell 20, elapsed: 0.0007050037384033203
ell 19, elapsed: 0.0006258487701416016
ell 18, elapsed: 0.0006949901580810547
ell 17, elapsed: 0.0007851123809814453
ell 16, elapsed: 0.001071929931640625
ell 15, elapsed: 0.0006670951843261719
ell 14, elapsed: 0.00067901611328125
ell 13, elapsed: 0.0005991458892822266
ell 12, elapsed: 0.0008280277252197266
ell 11, elapsed: 0.0004780292510986328
ell 10, elapsed: 0.0005331039428710938
ell 9, elapsed: 0.0005381107330322266
ell 8, elapsed: 0.0006229877471923828
ell 7, elapsed: 0.0004990100860595703
ell 6, elapsed: 0.0006251335144042969
ell 5, elapsed: 0.0006120204925537109
ell 4, elapsed: 0.0004379749298095703
ell 3, elapsed: 0.000514984130859375
ell 2, elapsed: 0.0007109642028808594
ell 1, elapsed: 0.0004990100860595703
ell 0, elapsed: 0.0004520416259765625
  0.153939 seconds (10.83 k allocations: 697.938 KiB)
elapsed: 0.00046706199645996094
step:          0.060101 sec (0 allocations: 0 byte, 0.0% gc time)
swapping:      0.000561 sec (0 allocations: 0 byte, 0.0% gc time)
calc_Mellell!: 0.001791 sec (0 allocations: 0 byte, 0.0% gc time)
  t0 :  0.000501 sec (0 allocations: 0 byte, 0.0% gc time)
  tm2 : 0.017103 sec (0 allocations: 0 byte, 0.0% gc time)
  tm2s: 0.000387 sec (0 allocations: 0 byte, 0.0% gc time)
  tm4 : 0.04799 sec (0 allocations: 0 byte, 0.0% gc time)
  tp2 : 0.0 sec (0 allocations: 0 byte, 0.0% gc time)
  tp2s: 0.0 sec (0 allocations: 0 byte, 0.0% gc time)
  tp4 : 0.0 sec (0 allocations: 0 byte, 0.0% gc time)
calc_wtdll!:   0.066678 sec (1.344 k allocations: 147.0 KB, 0.0% gc time)
calc_wljj!:    0.005052 sec (6 allocations: 96 byte, 0.0% gc time)
mult_prefac!:  0.0 sec (0 allocations: 0 byte, 0.0% gc time)
convert:       0.0 sec (0 allocations: 0 byte, 0.0% gc time)
write:         0.005448 sec (0 allocations: 0 byte, 0.0% gc time)
test_rand_2f1: 0.0 sec (0 allocations: 0 byte, 0.0% gc time)
Closing outfile out/Ml21-cache.bin...   0.000072 seconds
  0.000263 seconds (51 allocations: 28.281 KiB)
make_phi():   0.002885 seconds (8.20 k allocations: 238.000 KiB)
  0.018903 seconds (12.10 k allocations: 322.000 KiB)
tskip:       2.4e-5 sec (0 allocations: 0 byte, 0.0% gc time)
tread:       0.002916 sec (19 allocations: 2.172 KB, 0.0% gc time)
tmultphi:    0.001342 sec (0 allocations: 0 byte, 0.0% gc time)
tbrfft:      0.004585 sec (896 allocations: 42.0 KB, 0.0% gc time)
tmultprefac: 0.003763 sec (0 allocations: 0 byte, 0.0% gc time)
toutfunc:    0.00621 sec (10.528 k allocations: 206.5 KB, 0.0% gc time)
Testing R=0.9 ... passed
Calculating fmax: 
  dlrec    = 4
  dlrecRg1 = -4
  q=1.1, R=0.8:	  0.408588 seconds (113.61 k allocations: 15.166 MiB, 5.97% gc time)

  0.408901 seconds (113.66 k allocations: 15.200 MiB, 5.97% gc time)
ℓ = 1202
Δℓ = 4
ΔℓRg1 = -4
N = 1600
q = 1.1
kmin = 1.0e-5
kmax = 100000.00000000004
χ0 = 0.023029999999999995
RR = RR.tsv
ℓmax = ℓmax.bin
f21 = f21.bin
kmin = 1.0e-5
kmax = 100000.0
dlrec    = 4
dlrecRg1 = -4
Output size: 5741568 bytes = 0.005347251892089844 GiB
Output size: 51264 bytes = 4.774332046508789e-5 GiB
Reading 'out/F21EllCache'...   0.001114 seconds (267 allocations: 84.656 KiB)
ellmax: 1202
lmaxcache: 1202
fell[:,1,1] = Complex{Float64}[7.519068145690986e-120 - 1.8416405474382574e-135im, 7.541664537386155e-120 - 1.847175067190611e-135im]
ell 1202, elapsed: 2.002716064453125e-5
ell 1201, elapsed: 0.0003800392150878906
ell 1200, elapsed: 0.0004229545593261719
ell 1199, elapsed: 0.0005509853363037109
ell 1198, elapsed: 0.0004520416259765625
ell 1002, elapsed: 0.010284900665283203
ell 1001, elapsed: 0.00037407875061035156
ell 1000, elapsed: 0.00034618377685546875
ell 999, elapsed: 0.0003459453582763672
ell 998, elapsed: 0.0003490447998046875
ell 902, elapsed: 0.005285978317260742
ell 901, elapsed: 0.00036978721618652344
ell 900, elapsed: 0.000347137451171875
ell 899, elapsed: 0.00034689903259277344
ell 898, elapsed: 0.0003559589385986328
ell 802, elapsed: 0.005488157272338867
ell 801, elapsed: 0.00037598609924316406
ell 800, elapsed: 0.0003540515899658203
ell 799, elapsed: 0.0003540515899658203
ell 798, elapsed: 0.0003559589385986328
ell 702, elapsed: 0.0052640438079833984
ell 701, elapsed: 0.00037407875061035156
ell 700, elapsed: 0.0003540515899658203
ell 699, elapsed: 0.00035309791564941406
ell 698, elapsed: 0.0003521442413330078
ell 602, elapsed: 0.005579948425292969
ell 601, elapsed: 0.00038313865661621094
ell 600, elapsed: 0.000431060791015625
ell 599, elapsed: 0.0005309581756591797
ell 598, elapsed: 0.0003509521484375
ell 502, elapsed: 0.005233049392700195
ell 501, elapsed: 0.000370025634765625
ell 500, elapsed: 0.00035309791564941406
ell 499, elapsed: 0.00035500526428222656
ell 498, elapsed: 0.0005059242248535156
ell 402, elapsed: 0.0051310062408447266
ell 401, elapsed: 0.0003771781921386719
ell 400, elapsed: 0.0004661083221435547
ell 399, elapsed: 0.0003578662872314453
ell 398, elapsed: 0.0003571510314941406
ell 302, elapsed: 0.004795074462890625
ell 301, elapsed: 0.0003800392150878906
ell 300, elapsed: 0.00035500526428222656
ell 299, elapsed: 0.0003521442413330078
ell 298, elapsed: 0.00035309791564941406
ell 202, elapsed: 0.005425930023193359
ell 201, elapsed: 0.00037479400634765625
ell 200, elapsed: 0.00036406517028808594
ell 199, elapsed: 0.00035691261291503906
ell 198, elapsed: 0.0003540515899658203
ell 152, elapsed: 0.002650022506713867
ell 151, elapsed: 0.0003809928894042969
ell 150, elapsed: 0.0003590583801269531
ell 149, elapsed: 0.0003540515899658203
ell 148, elapsed: 0.0003581047058105469
ell 127, elapsed: 0.0017740726470947266
ell 126, elapsed: 0.000370025634765625
ell 125, elapsed: 0.0003581047058105469
ell 124, elapsed: 0.0003609657287597656
ell 123, elapsed: 0.0003540515899658203
ell 114, elapsed: 0.0008149147033691406
ell 113, elapsed: 0.0005228519439697266
ell 112, elapsed: 0.0005769729614257812
ell 111, elapsed: 0.0005080699920654297
ell 110, elapsed: 0.0005478858947753906
ell 102, elapsed: 0.001199960708618164
ell 101, elapsed: 0.0003688335418701172
ell 100, elapsed: 0.0005030632019042969
ell 99, elapsed: 0.0006890296936035156
ell 98, elapsed: 0.00046896934509277344
ell 97, elapsed: 0.0003948211669921875
ell 96, elapsed: 0.0004830360412597656
ell 95, elapsed: 0.0003979206085205078
ell 94, elapsed: 0.0004680156707763672
ell 93, elapsed: 0.0004010200500488281
ell 92, elapsed: 0.0004630088806152344
ell 91, elapsed: 0.0004999637603759766
ell 90, elapsed: 0.0004761219024658203
ell 89, elapsed: 0.0004909038543701172
ell 88, elapsed: 0.0006158351898193359
ell 87, elapsed: 0.0004909038543701172
ell 86, elapsed: 0.0007121562957763672
ell 85, elapsed: 0.00047087669372558594
ell 84, elapsed: 0.0006670951843261719
ell 83, elapsed: 0.0004849433898925781
ell 82, elapsed: 0.0006499290466308594
ell 81, elapsed: 0.00045299530029296875
ell 80, elapsed: 0.0004570484161376953
ell 79, elapsed: 0.00039505958557128906
ell 78, elapsed: 0.0005679130554199219
ell 77, elapsed: 0.0007488727569580078
ell 76, elapsed: 0.0006439685821533203
ell 75, elapsed: 0.0004820823669433594
ell 74, elapsed: 0.0004680156707763672
ell 73, elapsed: 0.0003998279571533203
ell 72, elapsed: 0.0004611015319824219
ell 71, elapsed: 0.000392913818359375
ell 70, elapsed: 0.0004811286926269531
ell 69, elapsed: 0.00039887428283691406
ell 68, elapsed: 0.00046706199645996094
ell 67, elapsed: 0.0003991127014160156
ell 66, elapsed: 0.0004639625549316406
ell 65, elapsed: 0.0003991127014160156
ell 64, elapsed: 0.0004699230194091797
ell 63, elapsed: 0.0003991127014160156
ell 62, elapsed: 0.00046896934509277344
ell 61, elapsed: 0.00040984153747558594
ell 60, elapsed: 0.0004639625549316406
ell 59, elapsed: 0.0004000663757324219
ell 58, elapsed: 0.0004570484161376953
ell 57, elapsed: 0.0003981590270996094
ell 56, elapsed: 0.0004630088806152344
ell 55, elapsed: 0.0003979206085205078
ell 54, elapsed: 0.00046896934509277344
ell 53, elapsed: 0.00040793418884277344
ell 52, elapsed: 0.0004680156707763672
ell 51, elapsed: 0.0004019737243652344
ell 50, elapsed: 0.0004589557647705078
ell 49, elapsed: 0.0003981590270996094
ell 48, elapsed: 0.0004620552062988281
ell 47, elapsed: 0.00039386749267578125
ell 46, elapsed: 0.0004611015319824219
ell 45, elapsed: 0.00038886070251464844
ell 44, elapsed: 0.0004780292510986328
ell 43, elapsed: 0.00039005279541015625
ell 42, elapsed: 0.0004611015319824219
ell 41, elapsed: 0.00039386749267578125
ell 40, elapsed: 0.00045800209045410156
ell 39, elapsed: 0.00039505958557128906
ell 38, elapsed: 0.0004630088806152344
ell 37, elapsed: 0.0003910064697265625
ell 36, elapsed: 0.00045299530029296875
ell 35, elapsed: 0.0003998279571533203
ell 34, elapsed: 0.0004661083221435547
ell 33, elapsed: 0.00039505958557128906
ell 32, elapsed: 0.0004611015319824219
ell 31, elapsed: 0.00039696693420410156
ell 30, elapsed: 0.00045990943908691406
ell 29, elapsed: 0.000392913818359375
ell 28, elapsed: 0.00045800209045410156
ell 27, elapsed: 0.00041413307189941406
ell 26, elapsed: 0.0004630088806152344
ell 25, elapsed: 0.0004010200500488281
ell 24, elapsed: 0.0004630088806152344
ell 23, elapsed: 0.0003981590270996094
ell 22, elapsed: 0.0005710124969482422
ell 21, elapsed: 0.00061798095703125
ell 20, elapsed: 0.0005421638488769531
ell 19, elapsed: 0.00040602684020996094
[...]
ell 789, elapsed: 0.0007810592651367188
ell 788, elapsed: 0.0008168220520019531
ell 782, elapsed: 0.0018041133880615234
ell 781, elapsed: 0.0007932186126708984
ell 780, elapsed: 0.0008370876312255859
ell 779, elapsed: 0.0008299350738525391
ell 778, elapsed: 0.0011589527130126953
ell 772, elapsed: 0.001725912094116211
ell 771, elapsed: 0.0009150505065917969
ell 770, elapsed: 0.0013170242309570312
ell 769, elapsed: 0.0008471012115478516
ell 768, elapsed: 0.0012350082397460938
ell 762, elapsed: 0.001934051513671875
ell 761, elapsed: 0.0009119510650634766
ell 760, elapsed: 0.0009150505065917969
ell 759, elapsed: 0.0009160041809082031
ell 758, elapsed: 0.001032114028930664
ell 752, elapsed: 0.0017321109771728516
ell 751, elapsed: 0.0009059906005859375
ell 750, elapsed: 0.0010819435119628906
ell 749, elapsed: 0.0008809566497802734
ell 748, elapsed: 0.0008690357208251953
ell 742, elapsed: 0.001970052719116211
ell 741, elapsed: 0.0008649826049804688
ell 740, elapsed: 0.0008540153503417969
ell 739, elapsed: 0.0008330345153808594
ell 738, elapsed: 0.0008540153503417969
ell 732, elapsed: 0.0020570755004882812
ell 731, elapsed: 0.0008139610290527344
ell 730, elapsed: 0.000843048095703125
ell 729, elapsed: 0.0009620189666748047
ell 728, elapsed: 0.0008461475372314453
ell 722, elapsed: 0.0017840862274169922
ell 721, elapsed: 0.0010600090026855469
ell 720, elapsed: 0.0009999275207519531
ell 719, elapsed: 0.000988006591796875
ell 718, elapsed: 0.0009810924530029297
ell 712, elapsed: 0.0020008087158203125
ell 711, elapsed: 0.0009059906005859375
ell 710, elapsed: 0.0008299350738525391
ell 709, elapsed: 0.0010390281677246094
ell 708, elapsed: 0.001010894775390625
ell 702, elapsed: 0.002382993698120117
ell 701, elapsed: 0.0009391307830810547
ell 700, elapsed: 0.0009059906005859375
ell 699, elapsed: 0.0008358955383300781
ell 698, elapsed: 0.0008609294891357422
ell 692, elapsed: 0.00173187255859375
ell 691, elapsed: 0.0007951259613037109
ell 690, elapsed: 0.0008320808410644531
ell 689, elapsed: 0.0009210109710693359
ell 688, elapsed: 0.0009889602661132812
ell 682, elapsed: 0.0018661022186279297
ell 681, elapsed: 0.0008988380432128906
ell 680, elapsed: 0.0008261203765869141
ell 679, elapsed: 0.000823974609375
ell 678, elapsed: 0.0008399486541748047
ell 672, elapsed: 0.0018301010131835938
ell 671, elapsed: 0.0008199214935302734
ell 670, elapsed: 0.0007989406585693359
ell 669, elapsed: 0.0008111000061035156
ell 668, elapsed: 0.000843048095703125
ell 662, elapsed: 0.0018358230590820312
ell 661, elapsed: 0.0008540153503417969
ell 660, elapsed: 0.0008530616760253906
ell 659, elapsed: 0.0008339881896972656
ell 658, elapsed: 0.0008130073547363281
ell 652, elapsed: 0.0015490055084228516
ell 651, elapsed: 0.0008351802825927734
ell 650, elapsed: 0.0008561611175537109
ell 649, elapsed: 0.0007939338684082031
ell 648, elapsed: 0.0008230209350585938
ell 642, elapsed: 0.0015561580657958984
ell 641, elapsed: 0.0008370876312255859
ell 640, elapsed: 0.000820159912109375
ell 639, elapsed: 0.0008220672607421875
ell 638, elapsed: 0.0008039474487304688
ell 632, elapsed: 0.0017800331115722656
ell 631, elapsed: 0.0008270740509033203
ell 630, elapsed: 0.0008721351623535156
ell 629, elapsed: 0.0008699893951416016
ell 628, elapsed: 0.0008690357208251953
ell 622, elapsed: 0.001920938491821289
ell 621, elapsed: 0.0008490085601806641
ell 620, elapsed: 0.0011210441589355469
ell 619, elapsed: 0.0008080005645751953
ell 618, elapsed: 0.0008108615875244141
ell 612, elapsed: 0.0018150806427001953
ell 611, elapsed: 0.0007710456848144531
ell 610, elapsed: 0.0008051395416259766
ell 609, elapsed: 0.0008208751678466797
ell 608, elapsed: 0.0008299350738525391
ell 602, elapsed: 0.0016369819641113281
ell 601, elapsed: 0.0008199214935302734
ell 600, elapsed: 0.0008120536804199219
ell 599, elapsed: 0.0008900165557861328
ell 598, elapsed: 0.0008299350738525391
ell 592, elapsed: 0.0018589496612548828
ell 591, elapsed: 0.0007951259613037109
ell 590, elapsed: 0.0009200572967529297
ell 589, elapsed: 0.0007801055908203125
ell 588, elapsed: 0.0007960796356201172
ell 582, elapsed: 0.0014979839324951172
ell 581, elapsed: 0.001383066177368164
ell 580, elapsed: 0.0009059906005859375
ell 579, elapsed: 0.0012850761413574219
ell 578, elapsed: 0.0009970664978027344
ell 572, elapsed: 0.0023970603942871094
ell 571, elapsed: 0.000904083251953125
ell 570, elapsed: 0.0008158683776855469
ell 569, elapsed: 0.0007998943328857422
ell 568, elapsed: 0.0007951259613037109
ell 562, elapsed: 0.0018358230590820312
ell 561, elapsed: 0.0008449554443359375
ell 560, elapsed: 0.0008370876312255859
ell 559, elapsed: 0.0008370876312255859
ell 558, elapsed: 0.0008389949798583984
ell 552, elapsed: 0.0016369819641113281
ell 551, elapsed: 0.0008440017700195312
ell 550, elapsed: 0.0008461475372314453
ell 549, elapsed: 0.0008618831634521484
ell 548, elapsed: 0.0008502006530761719
ell 542, elapsed: 0.0016160011291503906
ell 541, elapsed: 0.0008490085601806641
ell 540, elapsed: 0.0008940696716308594
ell 539, elapsed: 0.0008518695831298828
ell 538, elapsed: 0.0008440017700195312
ell 532, elapsed: 0.001605987548828125
ell 531, elapsed: 0.0008471012115478516
ell 530, elapsed: 0.0008449554443359375
ell 529, elapsed: 0.0008440017700195312
ell 528, elapsed: 0.0008461475372314453
ell 522, elapsed: 0.0018219947814941406
ell 521, elapsed: 0.0008020401000976562
ell 520, elapsed: 0.0008478164672851562
ell 519, elapsed: 0.0008530616760253906
ell 518, elapsed: 0.0008759498596191406
ell 512, elapsed: 0.0018320083618164062
ell 511, elapsed: 0.0008440017700195312
ell 510, elapsed: 0.0008718967437744141
ell 509, elapsed: 0.0008518695831298828
ell 508, elapsed: 0.0008409023284912109
ell 502, elapsed: 0.005913972854614258
ell 501, elapsed: 0.000885009765625
ell 500, elapsed: 0.0008549690246582031
ell 499, elapsed: 0.0008449554443359375
ell 498, elapsed: 0.0008459091186523438
ell 492, elapsed: 0.0018639564514160156
ell 491, elapsed: 0.0007989406585693359
ell 490, elapsed: 0.0008461475372314453
ell 489, elapsed: 0.0008740425109863281
ell 488, elapsed: 0.0008530616760253906
ell 482, elapsed: 0.001611948013305664
ell 481, elapsed: 0.00084686279296875
ell 480, elapsed: 0.0008730888366699219
ell 479, elapsed: 0.00084686279296875
ell 478, elapsed: 0.0008461475372314453
ell 472, elapsed: 0.001798868179321289
ell 471, elapsed: 0.0007970333099365234
ell 470, elapsed: 0.0008370876312255859
ell 469, elapsed: 0.0008370876312255859
ell 468, elapsed: 0.0008389949798583984
ell 462, elapsed: 0.0018160343170166016
ell 461, elapsed: 0.0007910728454589844
ell 460, elapsed: 0.0008409023284912109
ell 459, elapsed: 0.004931926727294922
ell 458, elapsed: 0.0008699893951416016
ell 452, elapsed: 0.0019478797912597656
ell 451, elapsed: 0.0008039474487304688
ell 450, elapsed: 0.0008919239044189453
ell 449, elapsed: 0.0008480548858642578
ell 448, elapsed: 0.0008401870727539062
ell 442, elapsed: 0.0018169879913330078
ell 441, elapsed: 0.0008029937744140625
ell 440, elapsed: 0.0008440017700195312
ell 439, elapsed: 0.0008509159088134766
ell 438, elapsed: 0.0008480548858642578
ell 432, elapsed: 0.002093076705932617
ell 431, elapsed: 0.0007958412170410156
ell 430, elapsed: 0.0008449554443359375
ell 429, elapsed: 0.0010480880737304688
ell 428, elapsed: 0.0008461475372314453
ell 422, elapsed: 0.0018680095672607422
ell 421, elapsed: 0.0009050369262695312
ell 420, elapsed: 0.000843048095703125
ell 419, elapsed: 0.000843048095703125
ell 418, elapsed: 0.0008449554443359375
ell 412, elapsed: 0.001817941665649414
ell 411, elapsed: 0.0008380413055419922
ell 410, elapsed: 0.0008361339569091797
ell 409, elapsed: 0.0008280277252197266
ell 408, elapsed: 0.0009839534759521484
ell 402, elapsed: 0.0014979839324951172
ell 401, elapsed: 0.0007970333099365234
ell 400, elapsed: 0.0008552074432373047
ell 399, elapsed: 0.0010039806365966797
ell 398, elapsed: 0.0008318424224853516
ell 392, elapsed: 0.0019240379333496094
ell 391, elapsed: 0.0015630722045898438
ell 390, elapsed: 0.0013041496276855469
ell 389, elapsed: 0.0014798641204833984
ell 388, elapsed: 0.0013051033020019531
ell 382, elapsed: 0.0024650096893310547
ell 381, elapsed: 0.0008459091186523438
ell 380, elapsed: 0.0008440017700195312
ell 379, elapsed: 0.0008490085601806641
ell 378, elapsed: 0.0007929801940917969
ell 372, elapsed: 0.0018680095672607422
ell 371, elapsed: 0.0008599758148193359
ell 370, elapsed: 0.0008389949798583984
ell 369, elapsed: 0.0008900165557861328
ell 368, elapsed: 0.0008521080017089844
ell 362, elapsed: 0.001817941665649414
ell 361, elapsed: 0.0007929801940917969
ell 360, elapsed: 0.00090789794921875
ell 359, elapsed: 0.0008478164672851562
ell 358, elapsed: 0.0008518695831298828
ell 352, elapsed: 0.00168609619140625
ell 351, elapsed: 0.0008559226989746094
ell 350, elapsed: 0.0008471012115478516
ell 349, elapsed: 0.0009288787841796875
ell 348, elapsed: 0.0008428096771240234
ell 342, elapsed: 0.0018138885498046875
ell 341, elapsed: 0.0007879734039306641
ell 340, elapsed: 0.0008380413055419922
ell 339, elapsed: 0.0010318756103515625
ell 338, elapsed: 0.0008490085601806641
ell 332, elapsed: 0.001806020736694336
ell 331, elapsed: 0.0007891654968261719
ell 330, elapsed: 0.0009379386901855469
ell 329, elapsed: 0.0009307861328125
ell 328, elapsed: 0.0009310245513916016
ell 322, elapsed: 0.0018541812896728516
ell 321, elapsed: 0.0007989406585693359
ell 320, elapsed: 0.0008449554443359375
ell 319, elapsed: 0.0008358955383300781
ell 318, elapsed: 0.0010471343994140625
ell 312, elapsed: 0.0017189979553222656
ell 311, elapsed: 0.0009288787841796875
ell 310, elapsed: 0.0009210109710693359
ell 309, elapsed: 0.0009291172027587891
ell 308, elapsed: 0.0009250640869140625
ell 302, elapsed: 0.0018689632415771484
ell 301, elapsed: 0.0008380413055419922
ell 300, elapsed: 0.0008311271667480469
ell 299, elapsed: 0.0008389949798583984
ell 298, elapsed: 0.001043081283569336
ell 292, elapsed: 0.0018839836120605469
ell 291, elapsed: 0.0008740425109863281
ell 290, elapsed: 0.0008840560913085938
ell 289, elapsed: 0.0008389949798583984
ell 288, elapsed: 0.000843048095703125
ell 282, elapsed: 0.0021049976348876953
ell 281, elapsed: 0.0008788108825683594
ell 280, elapsed: 0.0009310245513916016
ell 279, elapsed: 0.0008831024169921875
ell 278, elapsed: 0.0008490085601806641
ell 272, elapsed: 0.0016260147094726562
ell 271, elapsed: 0.0008521080017089844
ell 270, elapsed: 0.0008959770202636719
ell 269, elapsed: 0.0008449554443359375
ell 268, elapsed: 0.0008411407470703125
ell 262, elapsed: 0.001628875732421875
ell 261, elapsed: 0.0008900165557861328
ell 260, elapsed: 0.0008399486541748047
ell 259, elapsed: 0.0008389949798583984
ell 258, elapsed: 0.0008418560028076172
ell 252, elapsed: 0.0016579627990722656
ell 251, elapsed: 0.0008449554443359375
ell 250, elapsed: 0.0008440017700195312
ell 249, elapsed: 0.0008358955383300781
ell 248, elapsed: 0.0008859634399414062
ell 242, elapsed: 0.0017931461334228516
ell 241, elapsed: 0.0008351802825927734
ell 240, elapsed: 0.0008640289306640625
ell 239, elapsed: 0.0008349418640136719
ell 238, elapsed: 0.0008361339569091797
ell 232, elapsed: 0.0018777847290039062
ell 231, elapsed: 0.0009160041809082031
ell 230, elapsed: 0.0008409023284912109
ell 229, elapsed: 0.0008418560028076172
ell 228, elapsed: 0.0008370876312255859
ell 222, elapsed: 0.0018851757049560547
ell 221, elapsed: 0.0007967948913574219
ell 220, elapsed: 0.0008389949798583984
ell 219, elapsed: 0.0008361339569091797
ell 218, elapsed: 0.000904083251953125
ell 212, elapsed: 0.001811981201171875
ell 211, elapsed: 0.0007948875427246094
ell 210, elapsed: 0.0008950233459472656
ell 209, elapsed: 0.0008370876312255859
ell 208, elapsed: 0.0008409023284912109
ell 202, elapsed: 0.0016160011291503906
ell 201, elapsed: 0.0010950565338134766
ell 200, elapsed: 0.0007901191711425781
ell 199, elapsed: 0.0008358955383300781
ell 198, elapsed: 0.0008368492126464844
ell 192, elapsed: 0.0016379356384277344
ell 191, elapsed: 0.0008370876312255859
ell 190, elapsed: 0.0008358955383300781
ell 189, elapsed: 0.0008339881896972656
ell 188, elapsed: 0.0012218952178955078
ell 182, elapsed: 0.0018398761749267578
ell 181, elapsed: 0.0008871555328369141
ell 180, elapsed: 0.0008671283721923828
ell 179, elapsed: 0.0008389949798583984
ell 178, elapsed: 0.004086017608642578
ell 172, elapsed: 0.0015459060668945312
ell 171, elapsed: 0.0008361339569091797
ell 170, elapsed: 0.0008490085601806641
ell 169, elapsed: 0.0008020401000976562
ell 168, elapsed: 0.0007908344268798828
ell 162, elapsed: 0.0015349388122558594
ell 161, elapsed: 0.0008020401000976562
ell 160, elapsed: 0.0007958412170410156
ell 159, elapsed: 0.0007960796356201172
ell 158, elapsed: 0.0007958412170410156
ell 152, elapsed: 0.0015430450439453125
ell 151, elapsed: 0.0008180141448974609
ell 150, elapsed: 0.0008299350738525391
ell 149, elapsed: 0.0008101463317871094
ell 148, elapsed: 0.001316070556640625
ell 142, elapsed: 0.00150299072265625
ell 141, elapsed: 0.0008389949798583984
ell 140, elapsed: 0.001004934310913086
ell 139, elapsed: 0.0008349418640136719
ell 138, elapsed: 0.0008380413055419922
ell 132, elapsed: 0.0014760494232177734
ell 131, elapsed: 0.0008192062377929688
ell 130, elapsed: 0.0008368492126464844
ell 129, elapsed: 0.0007989406585693359
ell 128, elapsed: 0.0008020401000976562
ell 122, elapsed: 0.0015668869018554688
ell 121, elapsed: 0.0008151531219482422
ell 120, elapsed: 0.0008158683776855469
ell 119, elapsed: 0.0008449554443359375
ell 118, elapsed: 0.0008289813995361328
ell 112, elapsed: 0.0015130043029785156
ell 111, elapsed: 0.0008199214935302734
ell 110, elapsed: 0.0008220672607421875
ell 109, elapsed: 0.0008461475372314453
ell 108, elapsed: 0.0008330345153808594
ell 102, elapsed: 0.0015339851379394531
ell 101, elapsed: 0.004586935043334961
ell 100, elapsed: 0.004717826843261719
ell 99, elapsed: 0.00936579704284668
ell 98, elapsed: 0.004144906997680664
ell 92, elapsed: 0.007356882095336914
ell 91, elapsed: 0.004681825637817383
ell 90, elapsed: 0.006635904312133789
ell 89, elapsed: 0.004866123199462891
ell 88, elapsed: 0.004673004150390625
ell 82, elapsed: 0.008388042449951172
ell 81, elapsed: 0.005113124847412109
ell 80, elapsed: 0.004889965057373047
ell 79, elapsed: 0.005404949188232422
ell 78, elapsed: 0.004987001419067383
ell 72, elapsed: 0.0307309627532959
ell 71, elapsed: 0.004733085632324219
ell 70, elapsed: 0.005235910415649414
ell 69, elapsed: 0.004778861999511719
ell 68, elapsed: 0.0047321319580078125
ell 62, elapsed: 0.007595062255859375
ell 61, elapsed: 0.004817008972167969
ell 60, elapsed: 0.004734039306640625
ell 59, elapsed: 0.004830837249755859
ell 58, elapsed: 0.004801034927368164
ell 52, elapsed: 0.0075299739837646484
ell 51, elapsed: 0.004477024078369141
ell 50, elapsed: 0.004585981369018555
ell 49, elapsed: 0.004576206207275391
ell 48, elapsed: 0.004689931869506836
ell 42, elapsed: 0.007343769073486328
ell 41, elapsed: 0.0048139095306396484
ell 40, elapsed: 0.004812955856323242
ell 39, elapsed: 0.004647016525268555
ell 38, elapsed: 0.0044040679931640625
ell 32, elapsed: 0.007567167282104492
ell 31, elapsed: 0.004862070083618164
ell 30, elapsed: 0.004547119140625
ell 29, elapsed: 0.004318952560424805
ell 28, elapsed: 0.0039370059967041016
ell 22, elapsed: 0.006507158279418945
ell 21, elapsed: 0.004027843475341797
ell 20, elapsed: 0.004552125930786133
ell 19, elapsed: 0.0043561458587646484
ell 18, elapsed: 0.004183053970336914
ell 12, elapsed: 0.007046222686767578
ell 11, elapsed: 0.004318952560424805
ell 10, elapsed: 0.004726886749267578
ell 9, elapsed: 0.004413127899169922
ell 8, elapsed: 0.0046579837799072266
  0.933460 seconds (66.75 k allocations: 12.139 MiB)
elapsed: 0.004904031753540039
step:          0.096122 sec (0 allocations: 0 byte, 0.0% gc time)
swapping:      0.000828 sec (0 allocations: 0 byte, 0.0% gc time)
calc_Mellell!: 0.040052 sec (0 allocations: 0 byte, 0.0% gc time)
  t0 :  0.014711 sec (0 allocations: 0 byte, 0.0% gc time)
  tm2 : 0.088689 sec (0 allocations: 0 byte, 0.0% gc time)
  tm2s: 0.009326 sec (0 allocations: 0 byte, 0.0% gc time)
  tm4 : 0.255172 sec (0 allocations: 0 byte, 0.0% gc time)
  tp2 : 0.0 sec (0 allocations: 0 byte, 0.0% gc time)
  tp2s: 0.0 sec (0 allocations: 0 byte, 0.0% gc time)
  tp4 : 0.0 sec (0 allocations: 0 byte, 0.0% gc time)
calc_wtdll!:   0.656475 sec (49.2 k allocations: 11.133 MB, 0.0% gc time)
calc_wljj!:    0.047786 sec (69 allocations: 1.078 KB, 0.0% gc time)
mult_prefac!:  0.0 sec (0 allocations: 0 byte, 0.0% gc time)
convert:       0.0 sec (0 allocations: 0 byte, 0.0% gc time)
write:         0.040312 sec (0 allocations: 0 byte, 0.0% gc time)
test_rand_2f1: 0.0 sec (0 allocations: 0 byte, 0.0% gc time)
Closing outfile out/MlCache/MlCache.bin...   0.000010 seconds
xi, l=0, nu=0:   0.483005 seconds (650.13 k allocations: 31.212 MiB)
xi, l=0, nu=-2:  0.002556 seconds (142 allocations: 149.531 KiB)
Created 'out/xi.tsv'.
  q=1.1, R=0.6:	  0.749404 seconds (291.08 k allocations: 38.895 MiB, 4.35% gc time)
  q=1.1, R=0.7:	  0.879265 seconds (304.75 k allocations: 40.996 MiB, 1.97% gc time)
  q=1.1, R=0.8:	  0.891273 seconds (299.14 k allocations: 40.132 MiB, 1.84% gc time)
  q=1.1, R=0.9:	  1.004862 seconds (293.57 k allocations: 39.286 MiB, 1.46% gc time)
  q=1.1, R=0.998:	 22.772940 seconds (10.67 M allocations: 823.460 MiB, 0.25% gc time)
  q=1.1, R=1.0:	  0.004677 seconds (10.24 k allocations: 768.375 KiB)

ℓ = 1000
Δℓ = 4
ΔℓRg1 = -4
N = 4096
q = 1.1
kmin = 1.0e-5
kmax = 1000.0
χ0 = 0.001
RR = RR.tsv
ℓmax = ℓmax.bin
f21 = f21.bin
kmin = 1.0e-5
kmax = 1000.0
dlrec    = 4
dlrecRg1 = -4
Output size: 1573632 bytes = 0.0014655590057373047 GiB
Output size: 786816 bytes = 0.0007327795028686523 GiB
Reading 'out/F21EllCache'...   0.001998 seconds (268 allocations: 533.531 KiB)
ellmax: 1002
lmaxcache: 1000
fell[:,1,1] = Complex{Float64}[1.7262928128202118e-224 - 4.2281979352226944e-240im, 1.7282693092099662e-224 - 4.233038955177176e-240im]
ell 1002, elapsed: 3.3855438232421875e-5
ell 1001, elapsed: 0.0015370845794677734
ell 1000, elapsed: 0.0013599395751953125
ell 999, elapsed: 0.008959054946899414
ell 998, elapsed: 0.008283138275146484
ell 44, elapsed: 0.7380690574645996
ell 43, elapsed: 0.005415916442871094
ell 42, elapsed: 0.00669097900390625
ell 41, elapsed: 0.00584101676940918
ell 40, elapsed: 0.005956888198852539
  0.790205 seconds (4.55 k allocations: 320.359 KiB)
elapsed: 0.00760197639465332
step:          0.732439 sec (0 allocations: 0 byte, 0.0% gc time)
swapping:      0.000657 sec (0 allocations: 0 byte, 0.0% gc time)
calc_Mellell!: 0.001931 sec (0 allocations: 0 byte, 0.0% gc time)
  t0 :  0.000529 sec (0 allocations: 0 byte, 0.0% gc time)
  tm2 : 0.012742 sec (0 allocations: 0 byte, 0.0% gc time)
  tm2s: 0.000363 sec (0 allocations: 0 byte, 0.0% gc time)
  tm4 : 0.03376 sec (0 allocations: 0 byte, 0.0% gc time)
  tp2 : 0.0 sec (0 allocations: 0 byte, 0.0% gc time)
  tp2s: 0.0 sec (0 allocations: 0 byte, 0.0% gc time)
  tp4 : 0.0 sec (0 allocations: 0 byte, 0.0% gc time)
calc_wtdll!:   0.047671 sec (480 allocations: 52.5 KB, 0.0% gc time)
calc_wljj!:    0.001735 sec (1 allocations: 16 byte, 0.0% gc time)
mult_prefac!:  0.0 sec (0 allocations: 0 byte, 0.0% gc time)
convert:       0.0 sec (0 allocations: 0 byte, 0.0% gc time)
write:         0.001154 sec (0 allocations: 0 byte, 0.0% gc time)
test_rand_2f1: 0.0 sec (0 allocations: 0 byte, 0.0% gc time)
Closing outfile out/MlCache/MlCache.bin...   0.000008 seconds
  0.501308 seconds (53 allocations: 67.188 KiB)
make_phi():   0.009877 seconds (79 allocations: 276.281 KiB)
  0.003619 seconds (108 allocations: 5.812 KiB)
tskip:       2.0e-6 sec (0 allocations: 0 byte, 0.0% gc time)
tread:       0.000684 sec (19 allocations: 1.312 KB, 0.0% gc time)
tmultphi:    0.000352 sec (0 allocations: 0 byte, 0.0% gc time)
tbrfft:      0.001331 sec (96 allocations: 4.5 KB, 0.0% gc time)
tmultprefac: 0.001182 sec (0 allocations: 0 byte, 0.0% gc time)
toutfunc:    0.000168 sec (0 allocations: 0 byte, 0.0% gc time)
Created 'out/wl42_jj00.tsv'.
Created 'out/wl42_jj02.tsv'.
    Testing TwoFAST tests passed 
